@<TRIPOS>MOLECULE
Molecule Name
    42    42     1     0     0
SMALL
NO_CHARGES
****
Generated from the CSD

@<TRIPOS>ATOM
     1 C1       3.6397  -0.3895   0.1213   C.ar      1 1      0.0000
     2 C2       2.8076   0.1981   1.0742   C.ar      1 1      0.0000
     3 C3       1.4323   0.1892   0.8610   C.ar      1 1      0.0000
     4 C4       0.8810  -0.4062  -0.2860   C.ar      1 1      0.0000
     5 C5       1.7450  -0.9901  -1.2245   C.ar      1 1      0.0000
     6 C6       3.1254  -0.9828  -1.0295   C.ar      1 1      0.0000
     7 H7       3.2383   0.6503   1.9590   H         1 1      0.0000
     8 H8       0.7923   0.6631   1.5949   H         1 1      0.0000
     9 H9       1.3242  -1.4593  -2.1044   H         1 1      0.0000
    10 H10      3.7977  -1.4311  -1.7507   H         1 1      0.0000
    11 N11      5.0944  -0.3818   0.3394   N.pl3     1 1      0.0000
    12 O12      5.8085  -0.9095  -0.5157   O.2       1 1      0.0000
    13 O13      5.5199   0.1530   1.3663   O.2       1 1      0.0000
    14 CL3     -0.6397  -0.4503  -0.5408   C.3       1 1      0.0000
    15 CL1     -1.3777  -0.9195   0.7513   C.3       1 1      0.0000
    16 H16     -0.8625  -1.8230   1.0909   H         1 1      0.0000
    17 H17     -1.2663  -0.1572   1.5247   H         1 1      0.0000
    18 CL      -2.8854  -1.2636   0.6608   C.3       1 1      0.0000
    19 CL2     -3.3690  -1.7415   2.0350   C.3       1 1      0.0000
    20 H20     -4.3827  -2.1497   1.9786   H         1 1      0.0000
    21 H21     -2.7128  -2.5348   2.3999   H         1 1      0.0000
    22 H22     -3.3696  -0.9174   2.7544   H         1 1      0.0000
    23 N23     -3.6595  -0.1365   0.1969   N.3       1 1      0.0000
    24 H24     -3.3640   0.1365  -0.7358   H         1 1      0.0000
    25 OL1     -2.9404  -2.4075  -0.2652   O.3       1 1      0.0000
    26 H26     -3.8645  -2.6453  -0.4220   H         1 1      0.0000
    27 OL2     -0.8662  -1.3312  -1.6155   O.3       1 1      0.0000
    28 H28     -1.6828  -1.8361  -1.4455   H         1 1      0.0000
    29 CL4     -1.1315   0.9730  -0.9642   C.2       1 1      0.0000
    30 OL3     -1.8043   1.1891  -1.9499   O.2       1 1      0.0000
    31 C31     -5.1199  -0.2210   0.2443   C.3       1 1      0.0000
    32 H32     -5.4795  -0.1778   1.2757   H         1 1      0.0000
    33 H33     -5.5264   0.6465  -0.2813   H         1 1      0.0000
    34 H34     -5.5487  -1.1208  -0.2317   H         1 1      0.0000
    35 OL4     -0.7504   1.9231  -0.0957   O.3       1 1      0.0000
    36 C36     -1.1969   3.2784  -0.3780   C.3       1 1      0.0000
    37 H37     -2.2908   3.2828  -0.3833   H         1 1      0.0000
    38 H38     -0.8510   3.5523  -1.3786   H         1 1      0.0000
    39 C39     -0.6245   4.1840   0.6947   C.3       1 1      0.0000
    40 H40     -0.9401   5.2155   0.5072   H         1 1      0.0000
    41 H41     -0.9796   3.8934   1.6881   H         1 1      0.0000
    42 H42      0.4692   4.1548   0.6923   H         1 1      0.0000
@<TRIPOS>BOND
     1     1     2   ar
     2     1     6   ar
     3     1    11    1
     4     2     3   ar
     5     2     7    1
     6     3     4   ar
     7     3     8    1
     8     4     5   ar
     9     4    14    1
    10     5     6   ar
    11     5     9    1
    12     6    10    1
    13    11    12    2
    14    11    13    2
    15    14    15    1
    16    14    27    1
    17    14    29    1
    18    15    16    1
    19    15    17    1
    20    15    18    1
    21    18    19    1
    22    18    23    1
    23    18    25    1
    24    19    20    1
    25    19    21    1
    26    19    22    1
    27    23    24    1
    28    23    31    1
    29    25    26    1
    30    27    28    1
    31    29    30    2
    32    29    35    1
    33    31    32    1
    34    31    33    1
    35    31    34    1
    36    35    36    1
    37    36    37    1
    38    36    38    1
    39    36    39    1
    40    39    40    1
    41    39    41    1
    42    39    42    1
@<TRIPOS>SUBSTRUCTURE
     1 RES1        1 GROUP             0 ****  ****    0  
