# created with PyMOL 2.3.4
@<TRIPOS>MOLECULE
Molecule Name
36 36 1                 
SMALL
USER_CHARGES
@<TRIPOS>ATOM
1	  CL	-2.885	-1.264	0.661	C.3	1	RES1	0.000	
2	 CL1	-1.378	-0.919	0.751	C.3	1	RES1	0.000	
3	 CL2	-3.369	-1.742	2.035	C.3	1	RES1	0.000	
4	 CL3	-0.640	-0.450	-0.541	C.3	1	RES1	0.000	
5	 CL4	-1.132	0.973	-0.964	C.2	1	RES1	0.000	
6	 OL1	-2.940	-2.408	-0.265	O.3	1	RES1	0.000	
7	 OL2	-0.866	-1.331	-1.615	O.3	1	RES1	0.000	
8	 OL3	-1.804	1.189	-1.950	O.co2	1	RES1	0.000	
9	 OL4	-0.750	1.923	-0.096	O.3	1	RES1	0.000	
10	  C1	3.640	-0.389	0.121	C.2	1	RES1	0.000	
11	  C2	2.808	0.198	1.074	C.2	1	RES1	0.000	
12	  C3	1.432	0.189	0.861	C.2	1	RES1	0.000	
13	  C4	0.881	-0.406	-0.286	C.2	1	RES1	0.000	
14	  C5	1.745	-0.990	-1.224	C.2	1	RES1	0.000	
15	  C6	3.125	-0.983	-1.030	C.2	1	RES1	0.000	
16	 N11	5.094	-0.382	0.339	N.pl3	1	RES1	0.000	
17	 O12	5.808	-0.910	-0.516	O.2	1	RES1	0.000	
18	 O13	5.520	0.153	1.366	O.2	1	RES1	0.000	
19	 C36	-1.197	3.278	-0.378	C.3	1	RES1	0.000	
20	 C39	-0.624	4.184	0.695	C.3	1	RES1	0.000	
21	  H7	3.238	0.650	1.959	 H	1	RES1	0.000	
22	  H8	0.792	0.663	1.595	 H	1	RES1	0.000	
23	  H9	1.324	-1.459	-2.104	 H	1	RES1	0.000	
24	 H10	3.798	-1.431	-1.751	 H	1	RES1	0.000	
25	 H16	-0.863	-1.823	1.091	 H	1	RES1	0.000	
26	 H17	-1.266	-0.157	1.525	 H	1	RES1	0.000	
27	 H20	-4.383	-2.150	1.979	 H	1	RES1	0.000	
28	 H21	-2.713	-2.535	2.400	 H	1	RES1	0.000	
29	 H22	-3.370	-0.917	2.754	 H	1	RES1	0.000	
30	 H26	-3.865	-2.645	-0.422	 H	1	RES1	0.000	
31	 H28	-1.683	-1.836	-1.446	 H	1	RES1	0.000	
32	 H37	-2.291	3.283	-0.383	 H	1	RES1	0.000	
33	 H38	-0.851	3.552	-1.379	 H	1	RES1	0.000	
34	 H40	-0.940	5.215	0.507	 H	1	RES1	0.000	
35	 H41	-0.980	3.893	1.688	 H	1	RES1	0.000	
36	 H42	0.469	4.155	0.692	 H	1	RES1	0.000	
@<TRIPOS>BOND
1 1 3 1
2 1 6 1
3 1 2 1
4 2 25 1
5 2 26 1
6 3 27 1
7 3 28 1
8 3 29 1
9 2 4 1
10 4 5 1
11 4 7 1
12 5 8 2
13 5 9 1
14 6 30 1
15 7 31 1
16 9 19 1
17 10 11 ar
18 10 15 ar
19 10 16 1
20 11 12 ar
21 11 21 1
22 12 13 ar
23 12 22 1
24 4 13 1
25 13 14 ar
26 14 15 ar
27 14 23 1
28 15 24 1
29 16 17 2
30 16 18 2
31 19 20 1
32 19 32 1
33 19 33 1
34 20 34 1
35 20 35 1
36 20 36 1
@<TRIPOS>SUBSTRUCTURE
1	RES1	1	GROUP	1 ****	RES
