@<TRIPOS>MOLECULE
Molecule Name_00001_00001
    41    41     1     0     0
SMALL
NO_CHARGES
****
Generated from the CSD

@<TRIPOS>ATOM
     1 C5      -5.6439   0.8033  -0.0985   C.ar      1 1      0.0000
     2 C4      -4.9999   0.3546  -1.2314   C.ar      1 1      0.0000
     3 C3      -3.7310  -0.1924  -1.1396   C.ar      1 1      0.0000
     4 C8      -3.0902  -0.2985   0.0853   C.ar      1 1      0.0000
     5 C7      -3.7494   0.1580   1.2163   C.ar      1 1      0.0000
     6 C6      -5.0184   0.7052   1.1256   C.ar      1 1      0.0000
     7 H4      -5.4882   0.4301  -2.1974   H         1 1      0.0000
     8 C9      -1.7057  -0.8919   0.1845   C.3       1 1      0.0000
     9 H7      -3.2651   0.0857   2.1846   H         1 1      0.0000
    10 H6      -5.5212   1.0574   2.0202   H         1 1      0.0000
    11 C10     -0.5958   0.1352  -0.0307   C.3       1 1      0.0000
    12 H9A     -1.5836  -1.3470   1.1752   H         1 1      0.0000
    13 C11      0.8208  -0.4091   0.0584   C.3       1 1      0.0000
    14 C12      1.8634   0.6761  -0.1868   C.3       1 1      0.0000
    15 H12A     1.7889   1.4305   0.6061   H         1 1      0.0000
    16 C13      3.2630   0.1420  -0.2226   C.2       1 1      0.0000
    17 C14      4.3734   1.1253  -0.4412   C.3       1 1      0.0000
    18 H14B     4.0509   1.8601  -1.1891   H         1 1      0.0000
    19 H14A     5.2461   0.6000  -0.8482   H         1 1      0.0000
    20 N        3.4994  -1.1431  -0.0495   N.pl3     1 1      0.0000
    21 HN       2.6954  -1.7254   0.1844   H         1 1      0.0000
    22 C        4.8022  -1.7921  -0.0235   C.3       1 1      0.0000
    23 H1A      4.8066  -2.6199   0.6826   H         1 1      0.0000
    24 H1C      5.0572  -2.1837  -1.0060   H         1 1      0.0000
    25 H1B      5.5783  -1.0897   0.2727   H         1 1      0.0000
    26 H10A    -0.7306   0.5865  -1.0215   H         1 1      0.0000
    27 H10B    -0.7090   0.9292   0.7176   H         1 1      0.0000
    28 H9B     -1.6052  -1.6882  -0.5633   H         1 1      0.0000
    29 H5      -6.6382   1.2317  -0.1700   H         1 1      0.0000
    30 H3      -3.2321  -0.5423  -2.0373   H         1 1      0.0000
    31 H12B     1.6459   1.1721  -1.1408   H         1 1      0.0000
    32 C15      4.7850   1.8614   0.8204   C.3       1 1      0.0000
    33 H15A     5.1070   1.1319   1.5737   H         1 1      0.0000
    34 H15C     3.9169   2.3974   1.2236   H         1 1      0.0000
    35 OH       1.0236  -0.9681   1.3593   O.3       1 1      0.0000
    36 OH1      0.3683  -1.6925   1.5134   H         1 1      0.0000
    37 H22      0.9471  -1.2013  -0.6957   H         1 1      0.0000
    38 C16      5.9048   2.8457   0.5733   C.3       1 1      0.0000
    39 H16C     5.6051   3.5958  -0.1555   H         1 1      0.0000
    40 H16A     6.1784   3.3575   1.4935   H         1 1      0.0000
    41 H16B     6.7881   2.3372   0.1927   H         1 1      0.0000
@<TRIPOS>BOND
     1     1     2   ar
     2     1     6   ar
     3     1    29    1
     4     2     3   ar
     5     2     7    1
     6     3     4   ar
     7     3    30    1
     8     4     5   ar
     9     4     8    1
    10     5     6   ar
    11     5     9    1
    12     6    10    1
    13     8    11    1
    14     8    12    1
    15     8    28    1
    16    11    13    1
    17    11    26    1
    18    11    27    1
    19    13    14    1
    20    14    15    1
    21    14    16    1
    22    14    31    1
    23    16    17    1
    24    16    20    2
    25    17    18    1
    26    17    19    1
    27    17    32    1
    28    20    21    1
    29    20    22    1
    30    22    23    1
    31    22    24    1
    32    22    25    1
    33    32    33    1
    34    32    34    1
    35    13    35    1
    36    35    36    1
    37    13    37    1
    38    32    38    1
    39    38    39    1
    40    38    40    1
    41    38    41    1
@<TRIPOS>SUBSTRUCTURE
     1 1           1 GROUP             0 ****  ****    0  
@<TRIPOS>MOLECULE
Molecule Name_00001_00002
    41    41     1     0     0
SMALL
NO_CHARGES
****
Generated from the CSD

@<TRIPOS>ATOM
     1 C5      -5.6202   0.8648  -0.0335   C.ar      1 1      0.0000
     2 C4      -4.8740   0.8568  -1.1921   C.ar      1 1      0.0000
     3 C3      -3.6092   0.2928  -1.2010   C.ar      1 1      0.0000
     4 C8      -3.0749  -0.2710  -0.0526   C.ar      1 1      0.0000
     5 C7      -3.8362  -0.2548   1.1059   C.ar      1 1      0.0000
     6 C6      -5.1011   0.3090   1.1159   C.ar      1 1      0.0000
     7 H4      -5.2783   1.2935  -2.0994   H         1 1      0.0000
     8 C9      -1.6949  -0.8828  -0.0620   C.3       1 1      0.0000
     9 H7      -3.4360  -0.6893   2.0161   H         1 1      0.0000
    10 H6      -5.6846   0.3132   2.0305   H         1 1      0.0000
    11 C10     -0.5868   0.1314   0.2151   C.3       1 1      0.0000
    12 H9A     -1.6514  -1.6747   0.6959   H         1 1      0.0000
    13 C11      0.8252  -0.4317   0.2174   C.3       1 1      0.0000
    14 C12      1.8678   0.6489   0.4824   C.3       1 1      0.0000
    15 H12A     1.7134   1.0569   1.4889   H         1 1      0.0000
    16 C13      3.2736   0.1418   0.3715   C.2       1 1      0.0000
    17 C14      4.3831   1.1166   0.6292   C.3       1 1      0.0000
    18 H14B     5.2752   0.5601   0.9419   H         1 1      0.0000
    19 H14A     4.0981   1.7775   1.4569   H         1 1      0.0000
    20 N        3.5144  -1.1199   0.0755   N.pl3     1 1      0.0000
    21 HN       2.7025  -1.7333   0.0069   H         1 1      0.0000
    22 C        4.8201  -1.7549  -0.0292   C.3       1 1      0.0000
    23 H1A      4.7277  -2.8376   0.0242   H         1 1      0.0000
    24 H1C      5.2970  -1.5018  -0.9738   H         1 1      0.0000
    25 H1B      5.4737  -1.4302   0.7776   H         1 1      0.0000
    26 H10A    -0.6428   0.9201  -0.5454   H         1 1      0.0000
    27 H10B    -0.7767   0.5934   1.1918   H         1 1      0.0000
    28 H9B     -1.5177  -1.3468  -1.0401   H         1 1      0.0000
    29 H5      -6.6113   1.3064  -0.0262   H         1 1      0.0000
    30 H3      -3.0294   0.2920  -2.1181   H         1 1      0.0000
    31 H12B     1.7256   1.4668  -0.2347   H         1 1      0.0000
    32 C15      4.7352   1.9637  -0.5796   C.3       1 1      0.0000
    33 H15A     3.8465   2.5218  -0.8991   H         1 1      0.0000
    34 H15C     5.0319   1.3060  -1.4059   H         1 1      0.0000
    35 OH       0.9239  -1.4364   1.2306   O.3       1 1      0.0000
    36 OH1      0.2687  -2.1545   1.0488   H         1 1      0.0000
    37 H22      1.0284  -0.8900  -0.7628   H         1 1      0.0000
    38 C16      5.8553   2.9372  -0.2939   C.3       1 1      0.0000
    39 H16C     6.7583   2.4091   0.0050   H         1 1      0.0000
    40 H16A     6.0857   3.5299  -1.1766   H         1 1      0.0000
    41 H16B     5.5793   3.6178   0.5088   H         1 1      0.0000
@<TRIPOS>BOND
     1     1     2   ar
     2     1     6   ar
     3     1    29    1
     4     2     3   ar
     5     2     7    1
     6     3     4   ar
     7     3    30    1
     8     4     5   ar
     9     4     8    1
    10     5     6   ar
    11     5     9    1
    12     6    10    1
    13     8    11    1
    14     8    12    1
    15     8    28    1
    16    11    13    1
    17    11    26    1
    18    11    27    1
    19    13    14    1
    20    14    15    1
    21    14    16    1
    22    14    31    1
    23    16    17    1
    24    16    20    2
    25    17    18    1
    26    17    19    1
    27    17    32    1
    28    20    21    1
    29    20    22    1
    30    22    23    1
    31    22    24    1
    32    22    25    1
    33    32    33    1
    34    32    34    1
    35    13    35    1
    36    35    36    1
    37    13    37    1
    38    32    38    1
    39    38    39    1
    40    38    40    1
    41    38    41    1
@<TRIPOS>SUBSTRUCTURE
     1 1           1 GROUP             0 ****  ****    0  
@<TRIPOS>MOLECULE
Molecule Name_00001_00003
    41    41     1     0     0
SMALL
NO_CHARGES
****
Generated from the CSD

@<TRIPOS>ATOM
     1 C5      -5.5601   0.5403   0.2976   C.ar      1 1      0.0000
     2 C4      -4.6299   1.4457   0.7609   C.ar      1 1      0.0000
     3 C3      -3.2897   1.2865   0.4503   C.ar      1 1      0.0000
     4 C8      -2.8626   0.2214  -0.3276   C.ar      1 1      0.0000
     5 C7      -3.8090  -0.6822  -0.7857   C.ar      1 1      0.0000
     6 C6      -5.1495  -0.5240  -0.4757   C.ar      1 1      0.0000
     7 H4      -4.9484   2.2849   1.3704   H         1 1      0.0000
     8 C9      -1.4012   0.0465  -0.6632   C.3       1 1      0.0000
     9 H7      -3.4957  -1.5238  -1.3947   H         1 1      0.0000
    10 H6      -5.8780  -1.2395  -0.8424   H         1 1      0.0000
    11 C10     -0.6314  -0.7376   0.3979   C.3       1 1      0.0000
    12 H9A     -1.3167  -0.4758  -1.6242   H         1 1      0.0000
    13 C11      0.8470  -0.9434   0.1101   C.3       1 1      0.0000
    14 C12      1.6354   0.3564   0.2265   C.3       1 1      0.0000
    15 H12A     1.5855   0.7143   1.2623   H         1 1      0.0000
    16 C13      3.0727   0.2035  -0.1686   C.2       1 1      0.0000
    17 C14      3.9484   1.4169  -0.0767   C.3       1 1      0.0000
    18 H14B     3.3785   2.2892  -0.4196   H         1 1      0.0000
    19 H14A     4.8054   1.2956  -0.7505   H         1 1      0.0000
    20 N        3.5435  -0.9627  -0.5635   N.pl3     1 1      0.0000
    21 HN       2.9022  -1.7537  -0.5083   H         1 1      0.0000
    22 C        4.9171  -1.2638  -0.9399   C.3       1 1      0.0000
    23 H1A      5.1862  -2.2746  -0.6404   H         1 1      0.0000
    24 H1C      5.0479  -1.1836  -2.0170   H         1 1      0.0000
    25 H1B      5.6091  -0.5733  -0.4626   H         1 1      0.0000
    26 H10A    -0.7267  -0.2090   1.3544   H         1 1      0.0000
    27 H10B    -1.1023  -1.7219   0.5104   H         1 1      0.0000
    28 H9B     -0.9417   1.0358  -0.7794   H         1 1      0.0000
    29 H5      -6.6102   0.6648   0.5405   H         1 1      0.0000
    30 H3      -2.5651   2.0043   0.8203   H         1 1      0.0000
    31 H12B     1.1684   1.1165  -0.4120   H         1 1      0.0000
    32 C15      4.4588   1.6882   1.3264   C.3       1 1      0.0000
    33 H15A     5.0284   0.8185   1.6765   H         1 1      0.0000
    34 H15C     3.6038   1.8215   2.0008   H         1 1      0.0000
    35 OH       1.3737  -1.8955   1.0385   O.3       1 1      0.0000
    36 OH1      0.8819  -2.7491   0.9512   H         1 1      0.0000
    37 H22      0.9603  -1.3385  -0.9113   H         1 1      0.0000
    38 C16      5.3382   2.9154   1.3919   C.3       1 1      0.0000
    39 H16C     4.7914   3.7993   1.0702   H         1 1      0.0000
    40 H16A     5.6888   3.0849   2.4078   H         1 1      0.0000
    41 H16B     6.2076   2.8017   0.7478   H         1 1      0.0000
@<TRIPOS>BOND
     1     1     2   ar
     2     1     6   ar
     3     1    29    1
     4     2     3   ar
     5     2     7    1
     6     3     4   ar
     7     3    30    1
     8     4     5   ar
     9     4     8    1
    10     5     6   ar
    11     5     9    1
    12     6    10    1
    13     8    11    1
    14     8    12    1
    15     8    28    1
    16    11    13    1
    17    11    26    1
    18    11    27    1
    19    13    14    1
    20    14    15    1
    21    14    16    1
    22    14    31    1
    23    16    17    1
    24    16    20    2
    25    17    18    1
    26    17    19    1
    27    17    32    1
    28    20    21    1
    29    20    22    1
    30    22    23    1
    31    22    24    1
    32    22    25    1
    33    32    33    1
    34    32    34    1
    35    13    35    1
    36    35    36    1
    37    13    37    1
    38    32    38    1
    39    38    39    1
    40    38    40    1
    41    38    41    1
@<TRIPOS>SUBSTRUCTURE
     1 1           1 GROUP             0 ****  ****    0  
@<TRIPOS>MOLECULE
Molecule Name_00001_00004
    41    41     1     0     0
SMALL
NO_CHARGES
****
Generated from the CSD

@<TRIPOS>ATOM
     1 C5      -5.5024   0.5402   0.3176   C.ar      1 1      0.0000
     2 C4      -4.5959   1.0412   1.2267   C.ar      1 1      0.0000
     3 C3      -3.2377   0.9718   0.9651   C.ar      1 1      0.0000
     4 C8      -2.7687   0.4018  -0.2085   C.ar      1 1      0.0000
     5 C7      -3.6919  -0.0992  -1.1134   C.ar      1 1      0.0000
     6 C6      -5.0503  -0.0303  -0.8527   C.ar      1 1      0.0000
     7 H4      -4.9470   1.4909   2.1496   H         1 1      0.0000
     8 C9      -1.2880   0.3235  -0.4918   C.3       1 1      0.0000
     9 H7      -3.3459  -0.5508  -2.0373   H         1 1      0.0000
    10 H6      -5.7601  -0.4264  -1.5713   H         1 1      0.0000
    11 C10     -0.6311  -0.9269   0.0896   C.3       1 1      0.0000
    12 H9A     -1.1322   0.3364  -1.5776   H         1 1      0.0000
    13 C11      0.8618  -1.0567  -0.1665   C.3       1 1      0.0000
    14 C12      1.6661  -0.0337   0.6281   C.3       1 1      0.0000
    15 H12A     1.5346  -0.2284   1.6996   H         1 1      0.0000
    16 C13      3.1285  -0.0623   0.3025   C.2       1 1      0.0000
    17 C14      4.0200   0.8922   1.0387   C.3       1 1      0.0000
    18 H14B     5.0400   0.4886   1.0438   H         1 1      0.0000
    19 H14A     3.6877   0.9654   2.0814   H         1 1      0.0000
    20 N        3.6054  -0.9108  -0.5863   N.pl3     1 1      0.0000
    21 HN       2.9441  -1.5852  -0.9711   H         1 1      0.0000
    22 C        4.9993  -1.0733  -0.9731   C.3       1 1      0.0000
    23 H1A      5.1513  -2.0259  -1.4765   H         1 1      0.0000
    24 H1C      5.3063  -0.2794  -1.6508   H         1 1      0.0000
    25 H1B      5.6487  -1.0435  -0.1008   H         1 1      0.0000
    26 H10A    -0.7971  -0.9315   1.1740   H         1 1      0.0000
    27 H10B    -1.1319  -1.8081  -0.3300   H         1 1      0.0000
    28 H9B     -0.7980   1.2114  -0.0737   H         1 1      0.0000
    29 H5      -6.5666   0.5946   0.5221   H         1 1      0.0000
    30 H3      -2.5319   1.3685   1.6874   H         1 1      0.0000
    31 H12B     1.2735   0.9694   0.4205   H         1 1      0.0000
    32 C15      4.0483   2.2825   0.4312   C.3       1 1      0.0000
    33 H15A     3.0305   2.6915   0.4211   H         1 1      0.0000
    34 H15C     4.3914   2.2140  -0.6085   H         1 1      0.0000
    35 OH       1.2843  -2.3728   0.2012   O.3       1 1      0.0000
    36 OH1      0.7829  -3.0408  -0.3283   H         1 1      0.0000
    37 H22      1.0543  -0.9053  -1.2399   H         1 1      0.0000
    38 C16      4.9533   3.2244   1.1911   C.3       1 1      0.0000
    39 H16C     5.9763   2.8541   1.1988   H         1 1      0.0000
    40 H16A     4.9537   4.2117   0.7338   H         1 1      0.0000
    41 H16B     4.6229   3.3287   2.2224   H         1 1      0.0000
@<TRIPOS>BOND
     1     1     2   ar
     2     1     6   ar
     3     1    29    1
     4     2     3   ar
     5     2     7    1
     6     3     4   ar
     7     3    30    1
     8     4     5   ar
     9     4     8    1
    10     5     6   ar
    11     5     9    1
    12     6    10    1
    13     8    11    1
    14     8    12    1
    15     8    28    1
    16    11    13    1
    17    11    26    1
    18    11    27    1
    19    13    14    1
    20    14    15    1
    21    14    16    1
    22    14    31    1
    23    16    17    1
    24    16    20    2
    25    17    18    1
    26    17    19    1
    27    17    32    1
    28    20    21    1
    29    20    22    1
    30    22    23    1
    31    22    24    1
    32    22    25    1
    33    32    33    1
    34    32    34    1
    35    13    35    1
    36    35    36    1
    37    13    37    1
    38    32    38    1
    39    38    39    1
    40    38    40    1
    41    38    41    1
@<TRIPOS>SUBSTRUCTURE
     1 1           1 GROUP             0 ****  ****    0  
@<TRIPOS>MOLECULE
Molecule Name_00001_00005
    41    41     1     0     0
SMALL
NO_CHARGES
****
Generated from the CSD

@<TRIPOS>ATOM
     1 C5      -4.9122   0.3183  -1.2801   C.ar      1 1      0.0000
     2 C4      -3.9798  -0.6086  -1.6935   C.ar      1 1      0.0000
     3 C3      -2.8922  -0.9072  -0.8898   C.ar      1 1      0.0000
     4 C8      -2.7234  -0.2840   0.3371   C.ar      1 1      0.0000
     5 C7      -3.6685   0.6471   0.7397   C.ar      1 1      0.0000
     6 C6      -4.7564   0.9463  -0.0633   C.ar      1 1      0.0000
     7 H4      -4.0980  -1.1054  -2.6508   H         1 1      0.0000
     8 C9      -1.5360  -0.6074   1.2114   C.3       1 1      0.0000
     9 H7      -3.5543   1.1474   1.6956   H         1 1      0.0000
    10 H6      -5.4877   1.6770   0.2663   H         1 1      0.0000
    11 C10     -0.3053   0.2377   0.8887   C.3       1 1      0.0000
    12 H9A     -1.8129  -0.4485   2.2609   H         1 1      0.0000
    13 C11      0.9213  -0.0470   1.7404   C.3       1 1      0.0000
    14 C12      2.1095   0.8174   1.3332   C.3       1 1      0.0000
    15 H12A     2.8885   0.7410   2.1018   H         1 1      0.0000
    16 C13      2.6898   0.4236   0.0090   C.2       1 1      0.0000
    17 C14      3.8466   1.2264  -0.5058   C.3       1 1      0.0000
    18 H14B     3.6677   2.2853  -0.2820   H         1 1      0.0000
    19 H14A     3.9010   1.1231  -1.5964   H         1 1      0.0000
    20 N        2.2055  -0.6027  -0.6615   N.pl3     1 1      0.0000
    21 HN       1.4802  -1.1480  -0.1960   H         1 1      0.0000
    22 C        2.6905  -1.1175  -1.9339   C.3       1 1      0.0000
    23 H1A      2.5907  -2.2001  -1.9751   H         1 1      0.0000
    24 H1C      2.1257  -0.6935  -2.7615   H         1 1      0.0000
    25 H1B      3.7397  -0.8681  -2.0772   H         1 1      0.0000
    26 H10A    -0.0406   0.0744  -0.1633   H         1 1      0.0000
    27 H10B    -0.5708   1.2954   1.0073   H         1 1      0.0000
    28 H9B     -1.2827  -1.6678   1.0899   H         1 1      0.0000
    29 H5      -5.7646   0.5523  -1.9094   H         1 1      0.0000
    30 H3      -2.1633  -1.6378  -1.2245   H         1 1      0.0000
    31 H12B     1.7896   1.8657   1.2854   H         1 1      0.0000
    32 C15      5.1791   0.8190   0.0954   C.3       1 1      0.0000
    33 H15A     5.3636  -0.2401  -0.1231   H         1 1      0.0000
    34 H15C     5.1318   0.9322   1.1855   H         1 1      0.0000
    35 OH       0.6049   0.2077   3.1119   O.3       1 1      0.0000
    36 OH1     -0.1501  -0.3678   3.3891   H         1 1      0.0000
    37 H22      1.1965  -1.1070   1.6270   H         1 1      0.0000
    38 C16      6.3278   1.6425  -0.4394   C.3       1 1      0.0000
    39 H16C     6.1821   2.6976  -0.2174   H         1 1      0.0000
    40 H16A     7.2685   1.3288   0.0082   H         1 1      0.0000
    41 H16B     6.4123   1.5317  -1.5184   H         1 1      0.0000
@<TRIPOS>BOND
     1     1     2   ar
     2     1     6   ar
     3     1    29    1
     4     2     3   ar
     5     2     7    1
     6     3     4   ar
     7     3    30    1
     8     4     5   ar
     9     4     8    1
    10     5     6   ar
    11     5     9    1
    12     6    10    1
    13     8    11    1
    14     8    12    1
    15     8    28    1
    16    11    13    1
    17    11    26    1
    18    11    27    1
    19    13    14    1
    20    14    15    1
    21    14    16    1
    22    14    31    1
    23    16    17    1
    24    16    20    2
    25    17    18    1
    26    17    19    1
    27    17    32    1
    28    20    21    1
    29    20    22    1
    30    22    23    1
    31    22    24    1
    32    22    25    1
    33    32    33    1
    34    32    34    1
    35    13    35    1
    36    35    36    1
    37    13    37    1
    38    32    38    1
    39    38    39    1
    40    38    40    1
    41    38    41    1
@<TRIPOS>SUBSTRUCTURE
     1 1           1 GROUP             0 ****  ****    0  
@<TRIPOS>MOLECULE
Molecule Name_00001_00006
    41    41     1     0     0
SMALL
NO_CHARGES
****
Generated from the CSD

@<TRIPOS>ATOM
     1 C5      -4.6584   1.0534  -1.0112   C.ar      1 1      0.0000
     2 C4      -3.8025   0.2707  -1.7557   C.ar      1 1      0.0000
     3 C3      -2.7686  -0.4121  -1.1370   C.ar      1 1      0.0000
     4 C8      -2.5778  -0.3220   0.2333   C.ar      1 1      0.0000
     5 C7      -3.4456   0.4698   0.9695   C.ar      1 1      0.0000
     6 C6      -4.4797   1.1531   0.3518   C.ar      1 1      0.0000
     7 H4      -3.9389   0.1894  -2.8290   H         1 1      0.0000
     8 C9      -1.4488  -1.0639   0.9069   C.3       1 1      0.0000
     9 H7      -3.3128   0.5553   2.0430   H         1 1      0.0000
    10 H6      -5.1508   1.7683   0.9420   H         1 1      0.0000
    11 C10     -0.1384  -0.2792   0.9198   C.3       1 1      0.0000
    12 H9A     -1.7387  -1.2914   1.9401   H         1 1      0.0000
    13 C11      1.0338  -0.9806   1.5869   C.3       1 1      0.0000
    14 C12      2.3058  -0.1419   1.5295   C.3       1 1      0.0000
    15 H12A     3.0535  -0.5780   2.2034   H         1 1      0.0000
    16 C13      2.8841  -0.0544   0.1498   C.2       1 1      0.0000
    17 C14      4.1223   0.7715  -0.0302   C.3       1 1      0.0000
    18 H14B     4.6599   0.4116  -0.9161   H         1 1      0.0000
    19 H14A     4.7799   0.6300   0.8362   H         1 1      0.0000
    20 N        2.3276  -0.6976  -0.8571   N.pl3     1 1      0.0000
    21 HN       1.5435  -1.3084  -0.6283   H         1 1      0.0000
    22 C        2.7986  -0.7321  -2.2341   C.3       1 1      0.0000
    23 H1A      2.3138  -1.5336  -2.7875   H         1 1      0.0000
    24 H1C      2.5824   0.2071  -2.7389   H         1 1      0.0000
    25 H1B      3.8734  -0.8964  -2.2710   H         1 1      0.0000
    26 H10A     0.1390  -0.0536  -0.1173   H         1 1      0.0000
    27 H10B    -0.3105   0.6736   1.4356   H         1 1      0.0000
    28 H9B     -1.2890  -2.0169   0.3875   H         1 1      0.0000
    29 H5      -5.4686   1.5883  -1.4955   H         1 1      0.0000
    30 H3      -2.0998  -1.0252  -1.7319   H         1 1      0.0000
    31 H12B     2.0833   0.8706   1.8884   H         1 1      0.0000
    32 C15      3.8405   2.2531  -0.1989   C.3       1 1      0.0000
    33 H15A     3.3010   2.6194   0.6831   H         1 1      0.0000
    34 H15C     3.1923   2.3990  -1.0718   H         1 1      0.0000
    35 OH       0.7043  -1.2389   2.9546   O.3       1 1      0.0000
    36 OH1     -0.1069  -1.8029   2.9982   H         1 1      0.0000
    37 H22      1.2151  -1.9383   1.0749   H         1 1      0.0000
    38 C16      5.1039   3.0626  -0.3785   C.3       1 1      0.0000
    39 H16C     5.6499   2.7348  -1.2607   H         1 1      0.0000
    40 H16A     4.8716   4.1189  -0.4967   H         1 1      0.0000
    41 H16B     5.7576   2.9538   0.4845   H         1 1      0.0000
@<TRIPOS>BOND
     1     1     2   ar
     2     1     6   ar
     3     1    29    1
     4     2     3   ar
     5     2     7    1
     6     3     4   ar
     7     3    30    1
     8     4     5   ar
     9     4     8    1
    10     5     6   ar
    11     5     9    1
    12     6    10    1
    13     8    11    1
    14     8    12    1
    15     8    28    1
    16    11    13    1
    17    11    26    1
    18    11    27    1
    19    13    14    1
    20    14    15    1
    21    14    16    1
    22    14    31    1
    23    16    17    1
    24    16    20    2
    25    17    18    1
    26    17    19    1
    27    17    32    1
    28    20    21    1
    29    20    22    1
    30    22    23    1
    31    22    24    1
    32    22    25    1
    33    32    33    1
    34    32    34    1
    35    13    35    1
    36    35    36    1
    37    13    37    1
    38    32    38    1
    39    38    39    1
    40    38    40    1
    41    38    41    1
@<TRIPOS>SUBSTRUCTURE
     1 1           1 GROUP             0 ****  ****    0  
@<TRIPOS>MOLECULE
Molecule Name_00001_00007
    41    41     1     0     0
SMALL
NO_CHARGES
****
Generated from the CSD

@<TRIPOS>ATOM
     1 C5      -5.5821  -0.0701   0.7166   C.ar      1 1      0.0000
     2 C4      -4.8133   0.8878   1.3416   C.ar      1 1      0.0000
     3 C3      -3.5338   1.1588   0.8861   C.ar      1 1      0.0000
     4 C8      -3.0072   0.4767  -0.1999   C.ar      1 1      0.0000
     5 C7      -3.7914  -0.4851  -0.8182   C.ar      1 1      0.0000
     6 C6      -5.0710  -0.7568  -0.3634   C.ar      1 1      0.0000
     7 H4      -5.2112   1.4309   2.1925   H         1 1      0.0000
     8 C9      -1.6113   0.7701  -0.6941   C.3       1 1      0.0000
     9 H7      -3.3978  -1.0316  -1.6688   H         1 1      0.0000
    10 H6      -5.6724  -1.5121  -0.8585   H         1 1      0.0000
    11 C10     -0.5367  -0.0424   0.0256   C.3       1 1      0.0000
    12 H9A     -1.5616   0.5550  -1.7687   H         1 1      0.0000
    13 C11      0.8897   0.2140  -0.4334   C.3       1 1      0.0000
    14 C12      1.8974  -0.6221   0.3479   C.3       1 1      0.0000
    15 H12A     1.7086  -1.6851   0.1535   H         1 1      0.0000
    16 C13      3.3180  -0.3053  -0.0084   C.2       1 1      0.0000
    17 C14      3.8874   0.9854   0.4993   C.3       1 1      0.0000
    18 H14B     3.1188   1.7642   0.4211   H         1 1      0.0000
    19 H14A     4.7281   1.2848  -0.1383   H         1 1      0.0000
    20 N        4.0368  -1.1448  -0.7267   N.pl3     1 1      0.0000
    21 HN       3.6006  -2.0389  -0.9518   H         1 1      0.0000
    22 C        5.4307  -0.9851  -1.1147   C.3       1 1      0.0000
    23 H1A      5.9380  -1.9474  -1.1349   H         1 1      0.0000
    24 H1C      5.5065  -0.5414  -2.1052   H         1 1      0.0000
    25 H1B      5.9557  -0.3398  -0.4137   H         1 1      0.0000
    26 H10A    -0.5989   0.1770   1.0986   H         1 1      0.0000
    27 H10B    -0.7582  -1.1080  -0.1121   H         1 1      0.0000
    28 H9B     -1.4025   1.8383  -0.5576   H         1 1      0.0000
    29 H5      -6.5847  -0.2825   1.0731   H         1 1      0.0000
    30 H3      -2.9362   1.9144   1.3853   H         1 1      0.0000
    31 H12B     1.7511  -0.4480   1.4211   H         1 1      0.0000
    32 C15      4.3620   0.9109   1.9388   C.3       1 1      0.0000
    33 H15A     5.1298   0.1322   2.0246   H         1 1      0.0000
    34 H15C     3.5204   0.6229   2.5807   H         1 1      0.0000
    35 OH       0.9953  -0.1038  -1.8239   O.3       1 1      0.0000
    36 OH1      0.3639   0.4559  -2.3397   H         1 1      0.0000
    37 H22      1.1245   1.2801  -0.2905   H         1 1      0.0000
    38 C16      4.9309   2.2234   2.4260   C.3       1 1      0.0000
    39 H16C     4.1828   3.0116   2.3726   H         1 1      0.0000
    40 H16A     5.2626   2.1403   3.4589   H         1 1      0.0000
    41 H16B     5.7830   2.5233   1.8195   H         1 1      0.0000
@<TRIPOS>BOND
     1     1     2   ar
     2     1     6   ar
     3     1    29    1
     4     2     3   ar
     5     2     7    1
     6     3     4   ar
     7     3    30    1
     8     4     5   ar
     9     4     8    1
    10     5     6   ar
    11     5     9    1
    12     6    10    1
    13     8    11    1
    14     8    12    1
    15     8    28    1
    16    11    13    1
    17    11    26    1
    18    11    27    1
    19    13    14    1
    20    14    15    1
    21    14    16    1
    22    14    31    1
    23    16    17    1
    24    16    20    2
    25    17    18    1
    26    17    19    1
    27    17    32    1
    28    20    21    1
    29    20    22    1
    30    22    23    1
    31    22    24    1
    32    22    25    1
    33    32    33    1
    34    32    34    1
    35    13    35    1
    36    35    36    1
    37    13    37    1
    38    32    38    1
    39    38    39    1
    40    38    40    1
    41    38    41    1
@<TRIPOS>SUBSTRUCTURE
     1 1           1 GROUP             0 ****  ****    0  
@<TRIPOS>MOLECULE
Molecule Name_00001_00008
    41    41     1     0     0
SMALL
NO_CHARGES
****
Generated from the CSD

@<TRIPOS>ATOM
     1 C5      -5.5798  -0.1625   0.3284   C.ar      1 1      0.0000
     2 C4      -4.8372   0.1786   1.4382   C.ar      1 1      0.0000
     3 C3      -3.5113   0.5537   1.2994   C.ar      1 1      0.0000
     4 C8      -2.9114   0.5934   0.0502   C.ar      1 1      0.0000
     5 C7      -3.6700   0.2465  -1.0572   C.ar      1 1      0.0000
     6 C6      -4.9960  -0.1287  -0.9196   C.ar      1 1      0.0000
     7 H4      -5.2923   0.1531   2.4228   H         1 1      0.0000
     8 C9      -1.4652   0.9992  -0.1003   C.3       1 1      0.0000
     9 H7      -3.2193   0.2694  -2.0439   H         1 1      0.0000
    10 H6      -5.5765  -0.3967  -1.7961   H         1 1      0.0000
    11 C10     -0.4944  -0.1694   0.0578   C.3       1 1      0.0000
    12 H9A     -1.3231   1.4499  -1.0903   H         1 1      0.0000
    13 C11      0.9774   0.1834  -0.0844   C.3       1 1      0.0000
    14 C12      1.8750  -1.0344   0.1059   C.3       1 1      0.0000
    15 H12A     1.6285  -1.7840  -0.6563   H         1 1      0.0000
    16 C13      3.3335  -0.7036   0.0116   C.2       1 1      0.0000
    17 C14      3.9640  -0.0153   1.1847   C.3       1 1      0.0000
    18 H14B     5.0190  -0.3107   1.2410   H         1 1      0.0000
    19 H14A     3.4759  -0.3535   2.1070   H         1 1      0.0000
    20 N        4.0306  -1.0261  -1.0596   N.pl3     1 1      0.0000
    21 HN       3.5447  -1.5731  -1.7701   H         1 1      0.0000
    22 C        5.4530  -0.8007  -1.2721   C.3       1 1      0.0000
    23 H1A      5.8289  -1.4360  -2.0713   H         1 1      0.0000
    24 H1C      5.6423   0.2352  -1.5454   H         1 1      0.0000
    25 H1B      6.0185  -1.0213  -0.3693   H         1 1      0.0000
    26 H10A    -0.6486  -0.6145   1.0485   H         1 1      0.0000
    27 H10B    -0.7422  -0.9293  -0.6935   H         1 1      0.0000
    28 H9B     -1.2297   1.7631   0.6511   H         1 1      0.0000
    29 H5      -6.6187  -0.4562   0.4367   H         1 1      0.0000
    30 H3      -2.9349   0.8199   2.1793   H         1 1      0.0000
    31 H12B     1.6722  -1.4783   1.0883   H         1 1      0.0000
    32 C15      3.8844   1.4983   1.1110   C.3       1 1      0.0000
    33 H15A     2.8309   1.8016   1.0706   H         1 1      0.0000
    34 H15C     4.3661   1.8394   0.1863   H         1 1      0.0000
    35 OH       1.2009   0.7312  -1.3866   O.3       1 1      0.0000
    36 OH1      0.6428   1.5389  -1.5056   H         1 1      0.0000
    37 H22      1.2380   0.9396   0.6721   H         1 1      0.0000
    38 C16      4.5478   2.1680   2.2921   C.3       1 1      0.0000
    39 H16C     5.6015   1.9019   2.3446   H         1 1      0.0000
    40 H16A     4.4752   3.2506   2.2125   H         1 1      0.0000
    41 H16B     4.0747   1.8642   3.2235   H         1 1      0.0000
@<TRIPOS>BOND
     1     1     2   ar
     2     1     6   ar
     3     1    29    1
     4     2     3   ar
     5     2     7    1
     6     3     4   ar
     7     3    30    1
     8     4     5   ar
     9     4     8    1
    10     5     6   ar
    11     5     9    1
    12     6    10    1
    13     8    11    1
    14     8    12    1
    15     8    28    1
    16    11    13    1
    17    11    26    1
    18    11    27    1
    19    13    14    1
    20    14    15    1
    21    14    16    1
    22    14    31    1
    23    16    17    1
    24    16    20    2
    25    17    18    1
    26    17    19    1
    27    17    32    1
    28    20    21    1
    29    20    22    1
    30    22    23    1
    31    22    24    1
    32    22    25    1
    33    32    33    1
    34    32    34    1
    35    13    35    1
    36    35    36    1
    37    13    37    1
    38    32    38    1
    39    38    39    1
    40    38    40    1
    41    38    41    1
@<TRIPOS>SUBSTRUCTURE
     1 1           1 GROUP             0 ****  ****    0  
@<TRIPOS>MOLECULE
Molecule Name_00001_00009
    41    41     1     0     0
SMALL
NO_CHARGES
****
Generated from the CSD

@<TRIPOS>ATOM
     1 C5      -5.6320   0.5775  -0.3981   C.ar      1 1      0.0000
     2 C4      -5.0105  -0.4869  -1.0147   C.ar      1 1      0.0000
     3 C3      -3.7280  -0.8541  -0.6428   C.ar      1 1      0.0000
     4 C8      -3.0511  -0.1628   0.3502   C.ar      1 1      0.0000
     5 C7      -3.6879   0.9065   0.9610   C.ar      1 1      0.0000
     6 C6      -4.9704   1.2745   0.5899   C.ar      1 1      0.0000
     7 H4      -5.5271  -1.0383  -1.7932   H         1 1      0.0000
     8 C9      -1.6519  -0.5614   0.7530   C.3       1 1      0.0000
     9 H7      -3.1752   1.4618   1.7394   H         1 1      0.0000
    10 H6      -5.4554   2.1134   1.0780   H         1 1      0.0000
    11 C10     -0.5707   0.0973  -0.1017   C.3       1 1      0.0000
    12 H9A     -1.4923  -0.2881   1.8033   H         1 1      0.0000
    13 C11      0.8592  -0.2697   0.2612   C.3       1 1      0.0000
    14 C12      1.8709   0.4151  -0.6511   C.3       1 1      0.0000
    15 H12A     1.8344   1.4978  -0.4781   H         1 1      0.0000
    16 C13      3.2727  -0.0673  -0.4323   C.2       1 1      0.0000
    17 C14      3.9998   0.4440   0.7750   C.3       1 1      0.0000
    18 H14B     4.7837  -0.2745   1.0444   H         1 1      0.0000
    19 H14A     3.3014   0.5037   1.6187   H         1 1      0.0000
    20 N        3.8298  -0.9227  -1.2662   N.pl3     1 1      0.0000
    21 HN       3.2329  -1.2883  -2.0079   H         1 1      0.0000
    22 C        5.1616  -1.5005  -1.1586   C.3       1 1      0.0000
    23 H1A      5.2387  -2.4057  -1.7572   H         1 1      0.0000
    24 H1C      5.9156  -0.7982  -1.5078   H         1 1      0.0000
    25 H1B      5.3898  -1.7564  -0.1262   H         1 1      0.0000
    26 H10A    -0.7429  -0.1791  -1.1492   H         1 1      0.0000
    27 H10B    -0.6800   1.1857  -0.0197   H         1 1      0.0000
    28 H9B     -1.5552  -1.6512   0.6733   H         1 1      0.0000
    29 H5      -6.6368   0.8654  -0.6889   H         1 1      0.0000
    30 H3      -3.2471  -1.6931  -1.1347   H         1 1      0.0000
    31 H12B     1.5901   0.2345  -1.6961   H         1 1      0.0000
    32 C15      4.6367   1.8052   0.5647   C.3       1 1      0.0000
    33 H15A     3.8581   2.5286   0.2929   H         1 1      0.0000
    34 H15C     5.3445   1.7460  -0.2713   H         1 1      0.0000
    35 OH       1.1103   0.1192   1.6145   O.3       1 1      0.0000
    36 OH1      0.4746  -0.3432   2.2146   H         1 1      0.0000
    37 H22      0.9812  -1.3603   0.1732   H         1 1      0.0000
    38 C16      5.3626   2.2975   1.7953   C.3       1 1      0.0000
    39 H16C     6.1568   1.6089   2.0759   H         1 1      0.0000
    40 H16A     5.8083   3.2737   1.6155   H         1 1      0.0000
    41 H16B     4.6786   2.3870   2.6366   H         1 1      0.0000
@<TRIPOS>BOND
     1     1     2   ar
     2     1     6   ar
     3     1    29    1
     4     2     3   ar
     5     2     7    1
     6     3     4   ar
     7     3    30    1
     8     4     5   ar
     9     4     8    1
    10     5     6   ar
    11     5     9    1
    12     6    10    1
    13     8    11    1
    14     8    12    1
    15     8    28    1
    16    11    13    1
    17    11    26    1
    18    11    27    1
    19    13    14    1
    20    14    15    1
    21    14    16    1
    22    14    31    1
    23    16    17    1
    24    16    20    2
    25    17    18    1
    26    17    19    1
    27    17    32    1
    28    20    21    1
    29    20    22    1
    30    22    23    1
    31    22    24    1
    32    22    25    1
    33    32    33    1
    34    32    34    1
    35    13    35    1
    36    35    36    1
    37    13    37    1
    38    32    38    1
    39    38    39    1
    40    38    40    1
    41    38    41    1
@<TRIPOS>SUBSTRUCTURE
     1 1           1 GROUP             0 ****  ****    0  
@<TRIPOS>MOLECULE
Molecule Name_00001_00010
    41    41     1     0     0
SMALL
NO_CHARGES
****
Generated from the CSD

@<TRIPOS>ATOM
     1 C5      -5.6545   0.7573   0.1296   C.ar      1 1      0.0000
     2 C4      -5.4756  -0.5912  -0.0915   C.ar      1 1      0.0000
     3 C3      -4.1980  -1.1157  -0.1946   C.ar      1 1      0.0000
     4 C8      -3.0835  -0.2994  -0.0773   C.ar      1 1      0.0000
     5 C7      -3.2784   1.0553   0.1438   C.ar      1 1      0.0000
     6 C6      -4.5556   1.5808   0.2471   C.ar      1 1      0.0000
     7 H4      -6.3376  -1.2434  -0.1850   H         1 1      0.0000
     8 C9      -1.6912  -0.8710  -0.1930   C.3       1 1      0.0000
     9 H7      -2.4197   1.7120   0.2371   H         1 1      0.0000
    10 H6      -4.6914   2.6431   0.4209   H         1 1      0.0000
    11 C10     -0.5954   0.1815  -0.0360   C.3       1 1      0.0000
    12 H9A     -1.5580  -1.6423   0.5756   H         1 1      0.0000
    13 C11      0.8284  -0.3402  -0.1439   C.3       1 1      0.0000
    14 C12      1.8559   0.7764   0.0054   C.3       1 1      0.0000
    15 H12A     1.7763   1.2045   1.0123   H         1 1      0.0000
    16 C13      3.2619   0.3077  -0.2160   C.2       1 1      0.0000
    17 C14      4.3587   1.3204  -0.0774   C.3       1 1      0.0000
    18 H14B     4.0229   2.2660  -0.5206   H         1 1      0.0000
    19 H14A     5.2356   0.9827  -0.6432   H         1 1      0.0000
    20 N        3.5153  -0.9534  -0.5038   N.pl3     1 1      0.0000
    21 HN       2.7200  -1.5916  -0.4879   H         1 1      0.0000
    22 C        4.8262  -1.5526  -0.7075   C.3       1 1      0.0000
    23 H1A      4.8449  -2.5750  -0.3358   H         1 1      0.0000
    24 H1C      5.0808  -1.5720  -1.7652   H         1 1      0.0000
    25 H1B      5.5951  -0.9877  -0.1848   H         1 1      0.0000
    26 H10A    -0.7412   0.9491  -0.8060   H         1 1      0.0000
    27 H10B    -0.7145   0.6619   0.9431   H         1 1      0.0000
    28 H9B     -1.5847  -1.3538  -1.1723   H         1 1      0.0000
    29 H5      -6.6552   1.1686   0.2107   H         1 1      0.0000
    30 H3      -4.0677  -2.1785  -0.3694   H         1 1      0.0000
    31 H12B     1.6271   1.5719  -0.7145   H         1 1      0.0000
    32 C15      4.7678   1.5740   1.3617   C.3       1 1      0.0000
    33 H15A     5.1031   0.6315   1.8118   H         1 1      0.0000
    34 H15C     3.8954   1.9231   1.9276   H         1 1      0.0000
    35 OH       1.0452  -1.3162   0.8789   O.3       1 1      0.0000
    36 OH1      0.3999  -2.0576   0.7702   H         1 1      0.0000
    37 H22      0.9604  -0.8165  -1.1277   H         1 1      0.0000
    38 C16      5.8738   2.5977   1.4739   C.3       1 1      0.0000
    39 H16C     5.5608   3.5513   1.0540   H         1 1      0.0000
    40 H16A     6.1460   2.7588   2.5149   H         1 1      0.0000
    41 H16B     6.7615   2.2667   0.9388   H         1 1      0.0000
@<TRIPOS>BOND
     1     1     2   ar
     2     1     6   ar
     3     1    29    1
     4     2     3   ar
     5     2     7    1
     6     3     4   ar
     7     3    30    1
     8     4     5   ar
     9     4     8    1
    10     5     6   ar
    11     5     9    1
    12     6    10    1
    13     8    11    1
    14     8    12    1
    15     8    28    1
    16    11    13    1
    17    11    26    1
    18    11    27    1
    19    13    14    1
    20    14    15    1
    21    14    16    1
    22    14    31    1
    23    16    17    1
    24    16    20    2
    25    17    18    1
    26    17    19    1
    27    17    32    1
    28    20    21    1
    29    20    22    1
    30    22    23    1
    31    22    24    1
    32    22    25    1
    33    32    33    1
    34    32    34    1
    35    13    35    1
    36    35    36    1
    37    13    37    1
    38    32    38    1
    39    38    39    1
    40    38    40    1
    41    38    41    1
@<TRIPOS>SUBSTRUCTURE
     1 1           1 GROUP             0 ****  ****    0  
@<TRIPOS>MOLECULE
Molecule Name_00001_00011
    41    41     1     0     0
SMALL
NO_CHARGES
****
Generated from the CSD

@<TRIPOS>ATOM
     1 C5      -5.6330   0.7569   0.2849   C.ar      1 1      0.0000
     2 C4      -5.4538  -0.3078  -0.5716   C.ar      1 1      0.0000
     3 C3      -4.1788  -0.7760  -0.8420   C.ar      1 1      0.0000
     4 C8      -3.0674  -0.1868  -0.2592   C.ar      1 1      0.0000
     5 C7      -3.2625   0.8841   0.5994   C.ar      1 1      0.0000
     6 C6      -4.5370   1.3531   0.8704   C.ar      1 1      0.0000
     7 H4      -6.3135  -0.7802  -1.0352   H         1 1      0.0000
     8 C9      -1.6775  -0.6954  -0.5567   C.3       1 1      0.0000
     9 H7      -2.4060   1.3607   1.0648   H         1 1      0.0000
    10 H6      -4.6731   2.1918   1.5452   H         1 1      0.0000
    11 C10     -0.5850   0.0792   0.1777   C.3       1 1      0.0000
    12 H9A     -1.6173  -1.7533  -0.2728   H         1 1      0.0000
    13 C11      0.8362  -0.3917  -0.0860   C.3       1 1      0.0000
    14 C12      1.8621   0.4457   0.6695   C.3       1 1      0.0000
    15 H12A     1.7061   0.3169   1.7477   H         1 1      0.0000
    16 C13      3.2755   0.0782   0.3334   C.2       1 1      0.0000
    17 C14      4.3700   0.8276   1.0320   C.3       1 1      0.0000
    18 H14B     5.2728   0.2044   1.0418   H         1 1      0.0000
    19 H14A     4.0784   1.0041   2.0745   H         1 1      0.0000
    20 N        3.5355  -0.8815  -0.5320   N.pl3     1 1      0.0000
    21 HN       2.7335  -1.3999  -0.8899   H         1 1      0.0000
    22 C        4.8510  -1.3657  -0.9245   C.3       1 1      0.0000
    23 H1A      4.7767  -2.3422  -1.3986   H         1 1      0.0000
    24 H1C      5.3189  -0.6816  -1.6293   H         1 1      0.0000
    25 H1B      5.5032  -1.4580  -0.0587   H         1 1      0.0000
    26 H10A    -0.6578   1.1353  -0.1101   H         1 1      0.0000
    27 H10B    -0.7775   0.0114   1.2556   H         1 1      0.0000
    28 H9B     -1.4977  -0.6289  -1.6368   H         1 1      0.0000
    29 H5      -6.6318   1.1239   0.4972   H         1 1      0.0000
    30 H3      -4.0481  -1.6144  -1.5182   H         1 1      0.0000
    31 H12B     1.7029   1.5052   0.4335   H         1 1      0.0000
    32 C15      4.7021   2.1574   0.3807   C.3       1 1      0.0000
    33 H15A     3.8027   2.7852   0.3659   H         1 1      0.0000
    34 H15C     5.0055   1.9831  -0.6590   H         1 1      0.0000
    35 OH       0.9565  -1.7580   0.3197   O.3       1 1      0.0000
    36 OH1      0.3122  -2.3112  -0.1872   H         1 1      0.0000
    37 H22      1.0419  -0.3189  -1.1651   H         1 1      0.0000
    38 C16      5.8074   2.8922   1.1033   C.3       1 1      0.0000
    39 H16C     6.7205   2.3008   1.1146   H         1 1      0.0000
    40 H16A     6.0236   3.8402   0.6151   H         1 1      0.0000
    41 H16B     5.5243   3.0982   2.1334   H         1 1      0.0000
@<TRIPOS>BOND
     1     1     2   ar
     2     1     6   ar
     3     1    29    1
     4     2     3   ar
     5     2     7    1
     6     3     4   ar
     7     3    30    1
     8     4     5   ar
     9     4     8    1
    10     5     6   ar
    11     5     9    1
    12     6    10    1
    13     8    11    1
    14     8    12    1
    15     8    28    1
    16    11    13    1
    17    11    26    1
    18    11    27    1
    19    13    14    1
    20    14    15    1
    21    14    16    1
    22    14    31    1
    23    16    17    1
    24    16    20    2
    25    17    18    1
    26    17    19    1
    27    17    32    1
    28    20    21    1
    29    20    22    1
    30    22    23    1
    31    22    24    1
    32    22    25    1
    33    32    33    1
    34    32    34    1
    35    13    35    1
    36    35    36    1
    37    13    37    1
    38    32    38    1
    39    38    39    1
    40    38    40    1
    41    38    41    1
@<TRIPOS>SUBSTRUCTURE
     1 1           1 GROUP             0 ****  ****    0  
@<TRIPOS>MOLECULE
Molecule Name_00001_00012
    41    41     1     0     0
SMALL
NO_CHARGES
****
Generated from the CSD

@<TRIPOS>ATOM
     1 C5      -5.4997   0.6047  -0.1970   C.ar      1 1      0.0000
     2 C4      -5.0612  -0.3468   0.6984   C.ar      1 1      0.0000
     3 C3      -3.7073  -0.4927   0.9509   C.ar      1 1      0.0000
     4 C8      -2.7752   0.3109   0.3125   C.ar      1 1      0.0000
     5 C7      -3.2305   1.2629  -0.5866   C.ar      1 1      0.0000
     6 C6      -4.5841   1.4096  -0.8398   C.ar      1 1      0.0000
     7 H4      -5.7782  -0.9830   1.2066   H         1 1      0.0000
     8 C9      -1.2993   0.1493   0.5857   C.3       1 1      0.0000
     9 H7      -2.5174   1.9010  -1.0982   H         1 1      0.0000
    10 H6      -4.9245   2.1598  -1.5459   H         1 1      0.0000
    11 C10     -0.6365  -0.9030  -0.3012   C.3       1 1      0.0000
    12 H9A     -0.8006   1.1137   0.4288   H         1 1      0.0000
    13 C11      0.8518  -1.1068  -0.0679   C.3       1 1      0.0000
    14 C12      1.6534   0.1531  -0.3757   C.3       1 1      0.0000
    15 H12A     1.3540   0.9472   0.3195   H         1 1      0.0000
    16 C13      3.1332  -0.0572  -0.2685   C.2       1 1      0.0000
    17 C14      4.0206   1.1217  -0.5341   C.3       1 1      0.0000
    18 H14B     3.6100   1.6882  -1.3790   H         1 1      0.0000
    19 H14A     5.0159   0.7658  -0.8266   H         1 1      0.0000
    20 N        3.6251  -1.2337   0.0648   N.pl3     1 1      0.0000
    21 HN       2.9486  -1.9540   0.3171   H         1 1      0.0000
    22 C        5.0303  -1.5708   0.2408   C.3       1 1      0.0000
    23 H1A      5.1546  -2.3023   1.0365   H         1 1      0.0000
    24 H1C      5.4430  -1.9916  -0.6737   H         1 1      0.0000
    25 H1B      5.6105  -0.6874   0.4987   H         1 1      0.0000
    26 H10A    -1.1458  -1.8610  -0.1394   H         1 1      0.0000
    27 H10B    -0.7864  -0.6164  -1.3494   H         1 1      0.0000
    28 H9B     -1.1604  -0.1311   1.6371   H         1 1      0.0000
    29 H5      -6.5603   0.7194  -0.3950   H         1 1      0.0000
    30 H3      -3.3721  -1.2450   1.6572   H         1 1      0.0000
    31 H12B     1.4133   0.4908  -1.3914   H         1 1      0.0000
    32 C15      4.1597   2.0528   0.6561   C.3       1 1      0.0000
    33 H15A     4.5682   1.4919   1.5058   H         1 1      0.0000
    34 H15C     3.1668   2.4197   0.9440   H         1 1      0.0000
    35 OH       1.0627  -1.4743   1.2982   O.3       1 1      0.0000
    36 OH1      0.5642  -2.3048   1.4977   H         1 1      0.0000
    37 H22      1.2065  -1.9222  -0.7173   H         1 1      0.0000
    38 C16      5.0583   3.2318   0.3628   C.3       1 1      0.0000
    39 H16C     4.6651   3.8202  -0.4637   H         1 1      0.0000
    40 H16A     5.1394   3.8807   1.2323   H         1 1      0.0000
    41 H16B     6.0584   2.8973   0.0951   H         1 1      0.0000
@<TRIPOS>BOND
     1     1     2   ar
     2     1     6   ar
     3     1    29    1
     4     2     3   ar
     5     2     7    1
     6     3     4   ar
     7     3    30    1
     8     4     5   ar
     9     4     8    1
    10     5     6   ar
    11     5     9    1
    12     6    10    1
    13     8    11    1
    14     8    12    1
    15     8    28    1
    16    11    13    1
    17    11    26    1
    18    11    27    1
    19    13    14    1
    20    14    15    1
    21    14    16    1
    22    14    31    1
    23    16    17    1
    24    16    20    2
    25    17    18    1
    26    17    19    1
    27    17    32    1
    28    20    21    1
    29    20    22    1
    30    22    23    1
    31    22    24    1
    32    22    25    1
    33    32    33    1
    34    32    34    1
    35    13    35    1
    36    35    36    1
    37    13    37    1
    38    32    38    1
    39    38    39    1
    40    38    40    1
    41    38    41    1
@<TRIPOS>SUBSTRUCTURE
     1 1           1 GROUP             0 ****  ****    0  
@<TRIPOS>MOLECULE
Molecule Name_00001_00013
    41    41     1     0     0
SMALL
NO_CHARGES
****
Generated from the CSD

@<TRIPOS>ATOM
     1 C5      -5.5131   0.7119   0.1402   C.ar      1 1      0.0000
     2 C4      -5.1050  -0.5053  -0.3612   C.ar      1 1      0.0000
     3 C3      -3.7717  -0.8738  -0.2936   C.ar      1 1      0.0000
     4 C8      -2.8300  -0.0310   0.2766   C.ar      1 1      0.0000
     5 C7      -3.2545   1.1908   0.7758   C.ar      1 1      0.0000
     6 C6      -4.5875   1.5602   0.7086   C.ar      1 1      0.0000
     7 H4      -5.8299  -1.1763  -0.8100   H         1 1      0.0000
     8 C9      -1.3763  -0.4316   0.3471   C.3       1 1      0.0000
     9 H7      -2.5334   1.8658   1.2247   H         1 1      0.0000
    10 H6      -4.9039   2.5196   1.1044   H         1 1      0.0000
    11 C10     -0.5897  -0.0597  -0.9082   C.3       1 1      0.0000
    12 H9A     -0.9146   0.0553   1.2150   H         1 1      0.0000
    13 C11      0.8819  -0.4407  -0.8909   C.3       1 1      0.0000
    14 C12      1.6432   0.2812   0.2155   C.3       1 1      0.0000
    15 H12A     1.2471  -0.0351   1.1884   H         1 1      0.0000
    16 C13      3.1173   0.0144   0.1783   C.2       1 1      0.0000
    17 C14      3.9643   0.6611   1.2329   C.3       1 1      0.0000
    18 H14B     4.8791   0.0696   1.3615   H         1 1      0.0000
    19 H14A     3.4246   0.6480   2.1877   H         1 1      0.0000
    20 N        3.6371  -0.7750  -0.7404   N.pl3     1 1      0.0000
    21 HN       2.9783  -1.2451  -1.3609   H         1 1      0.0000
    22 C        5.0374  -1.1497  -0.8741   C.3       1 1      0.0000
    23 H1A      5.1422  -2.0316  -1.5025   H         1 1      0.0000
    24 H1C      5.6109  -0.3424  -1.3248   H         1 1      0.0000
    25 H1B      5.4726  -1.3722   0.0978   H         1 1      0.0000
    26 H10A    -1.0626  -0.5480  -1.7692   H         1 1      0.0000
    27 H10B    -0.6645   1.0248  -1.0550   H         1 1      0.0000
    28 H9B     -1.3128  -1.5161   0.4999   H         1 1      0.0000
    29 H5      -6.5576   1.0008   0.0876   H         1 1      0.0000
    30 H3      -3.4604  -1.8339  -0.6917   H         1 1      0.0000
    31 H12B     1.4732   1.3609   0.1212   H         1 1      0.0000
    32 C15      4.3502   2.0914   0.9039   C.3       1 1      0.0000
    33 H15A     3.4395   2.6885   0.7720   H         1 1      0.0000
    34 H15C     4.9003   2.1066  -0.0450   H         1 1      0.0000
    35 OH       0.9948  -1.8527  -0.6928   O.3       1 1      0.0000
    36 OH1      0.5231  -2.3272  -1.4210   H         1 1      0.0000
    37 H22      1.3302  -0.1779  -1.8616   H         1 1      0.0000
    38 C16      5.2029   2.7200   1.9817   C.3       1 1      0.0000
    39 H16C     6.1254   2.1597   2.1193   H         1 1      0.0000
    40 H16A     5.4637   3.7432   1.7193   H         1 1      0.0000
    41 H16B     4.6725   2.7383   2.9315   H         1 1      0.0000
@<TRIPOS>BOND
     1     1     2   ar
     2     1     6   ar
     3     1    29    1
     4     2     3   ar
     5     2     7    1
     6     3     4   ar
     7     3    30    1
     8     4     5   ar
     9     4     8    1
    10     5     6   ar
    11     5     9    1
    12     6    10    1
    13     8    11    1
    14     8    12    1
    15     8    28    1
    16    11    13    1
    17    11    26    1
    18    11    27    1
    19    13    14    1
    20    14    15    1
    21    14    16    1
    22    14    31    1
    23    16    17    1
    24    16    20    2
    25    17    18    1
    26    17    19    1
    27    17    32    1
    28    20    21    1
    29    20    22    1
    30    22    23    1
    31    22    24    1
    32    22    25    1
    33    32    33    1
    34    32    34    1
    35    13    35    1
    36    35    36    1
    37    13    37    1
    38    32    38    1
    39    38    39    1
    40    38    40    1
    41    38    41    1
@<TRIPOS>SUBSTRUCTURE
     1 1           1 GROUP             0 ****  ****    0  
@<TRIPOS>MOLECULE
Molecule Name_00001_00014
    41    41     1     0     0
SMALL
NO_CHARGES
****
Generated from the CSD

@<TRIPOS>ATOM
     1 C5      -5.4717   0.2601   0.4638   C.ar      1 1      0.0000
     2 C4      -4.6194  -0.3522   1.3572   C.ar      1 1      0.0000
     3 C3      -3.2486  -0.2122   1.2184   C.ar      1 1      0.0000
     4 C8      -2.7126   0.5418   0.1858   C.ar      1 1      0.0000
     5 C7      -3.5817   1.1510  -0.7062   C.ar      1 1      0.0000
     6 C6      -4.9527   1.0117  -0.5683   C.ar      1 1      0.0000
     7 H4      -5.0233  -0.9452   2.1711   H         1 1      0.0000
     8 C9      -1.2183   0.6914   0.0329   C.3       1 1      0.0000
     9 H7      -3.1829   1.7443  -1.5224   H         1 1      0.0000
    10 H6      -5.6197   1.4953  -1.2743   H         1 1      0.0000
    11 C10     -0.5833  -0.4314  -0.7852   C.3       1 1      0.0000
    12 H9A     -1.0044   1.6516  -0.4526   H         1 1      0.0000
    13 C11      0.9222  -0.3303  -0.9706   C.3       1 1      0.0000
    14 C12      1.6742  -0.5948   0.3291   C.3       1 1      0.0000
    15 H12A     1.4825  -1.6259   0.6507   H         1 1      0.0000
    16 C13      3.1531  -0.3911   0.1982   C.2       1 1      0.0000
    17 C14      3.6523   1.0200   0.1130   C.3       1 1      0.0000
    18 H14B     2.9643   1.5996  -0.5149   H         1 1      0.0000
    19 H14A     4.6334   1.0269  -0.3773   H         1 1      0.0000
    20 N        3.9767  -1.4200   0.1778   N.pl3     1 1      0.0000
    21 HN       3.5606  -2.3381   0.3334   H         1 1      0.0000
    22 C        5.4290  -1.3701   0.0924   C.3       1 1      0.0000
    23 H1A      5.8772  -2.1765   0.6691   H         1 1      0.0000
    24 H1C      5.7578  -1.4688  -0.9400   H         1 1      0.0000
    25 H1B      5.8069  -0.4261   0.4791   H         1 1      0.0000
    26 H10A    -0.8073  -1.3860  -0.2932   H         1 1      0.0000
    27 H10B    -1.0537  -0.4464  -1.7761   H         1 1      0.0000
    28 H9B     -0.7587   0.7113   1.0288   H         1 1      0.0000
    29 H5      -6.5457   0.1509   0.5724   H         1 1      0.0000
    30 H3      -2.5860  -0.6987   1.9265   H         1 1      0.0000
    31 H12B     1.2891   0.0748   1.1080   H         1 1      0.0000
    32 C15      3.7711   1.7009   1.4639   C.3       1 1      0.0000
    33 H15A     4.4566   1.1251   2.0980   H         1 1      0.0000
    34 H15C     2.7887   1.7059   1.9520   H         1 1      0.0000
    35 OH       1.3351  -1.2841  -1.9533   O.3       1 1      0.0000
    36 OH1      0.8684  -1.1030  -2.8061   H         1 1      0.0000
    37 H22      1.1709   0.6815  -1.3266   H         1 1      0.0000
    38 C16      4.2759   3.1208   1.3505   C.3       1 1      0.0000
    39 H16C     3.6024   3.7222   0.7435   H         1 1      0.0000
    40 H16A     4.3510   3.5830   2.3326   H         1 1      0.0000
    41 H16B     5.2607   3.1443   0.8887   H         1 1      0.0000
@<TRIPOS>BOND
     1     1     2   ar
     2     1     6   ar
     3     1    29    1
     4     2     3   ar
     5     2     7    1
     6     3     4   ar
     7     3    30    1
     8     4     5   ar
     9     4     8    1
    10     5     6   ar
    11     5     9    1
    12     6    10    1
    13     8    11    1
    14     8    12    1
    15     8    28    1
    16    11    13    1
    17    11    26    1
    18    11    27    1
    19    13    14    1
    20    14    15    1
    21    14    16    1
    22    14    31    1
    23    16    17    1
    24    16    20    2
    25    17    18    1
    26    17    19    1
    27    17    32    1
    28    20    21    1
    29    20    22    1
    30    22    23    1
    31    22    24    1
    32    22    25    1
    33    32    33    1
    34    32    34    1
    35    13    35    1
    36    35    36    1
    37    13    37    1
    38    32    38    1
    39    38    39    1
    40    38    40    1
    41    38    41    1
@<TRIPOS>SUBSTRUCTURE
     1 1           1 GROUP             0 ****  ****    0  
@<TRIPOS>MOLECULE
Molecule Name_00001_00015
    41    41     1     0     0
SMALL
NO_CHARGES
****
Generated from the CSD

@<TRIPOS>ATOM
     1 C5      -5.5197   0.0474   0.0517   C.ar      1 1      0.0000
     2 C4      -4.7363  -0.9527  -0.4827   C.ar      1 1      0.0000
     3 C3      -3.3645  -0.9379  -0.2932   C.ar      1 1      0.0000
     4 C8      -2.7587   0.0757   0.4333   C.ar      1 1      0.0000
     5 C7      -3.5589   1.0758   0.9640   C.ar      1 1      0.0000
     6 C6      -4.9308   1.0620   0.7750   C.ar      1 1      0.0000
     7 H4      -5.1953  -1.7533  -1.0532   H         1 1      0.0000
     8 C9      -1.2631   0.0932   0.6369   C.3       1 1      0.0000
     9 H7      -3.1047   1.8793   1.5344   H         1 1      0.0000
    10 H6      -5.5434   1.8517   1.1973   H         1 1      0.0000
    11 C10     -0.5113   0.7896  -0.4958   C.3       1 1      0.0000
    12 H9A     -1.0383   0.6039   1.5814   H         1 1      0.0000
    13 C11      1.0004   0.8359  -0.3417   C.3       1 1      0.0000
    14 C12      1.6320  -0.5410  -0.5141   C.3       1 1      0.0000
    15 H12A     1.4028  -0.9173  -1.5187   H         1 1      0.0000
    16 C13      3.1185  -0.5279  -0.3250   C.2       1 1      0.0000
    17 C14      3.6366  -0.4304   1.0786   C.3       1 1      0.0000
    18 H14B     4.5997  -0.9524   1.1354   H         1 1      0.0000
    19 H14A     2.9422  -0.9422   1.7561   H         1 1      0.0000
    20 N        3.9311  -0.6173  -1.3590   N.pl3     1 1      0.0000
    21 HN       3.4946  -0.7726  -2.2676   H         1 1      0.0000
    22 C        5.3858  -0.6531  -1.3215   C.3       1 1      0.0000
    23 H1A      5.7859  -1.0494  -2.2524   H         1 1      0.0000
    24 H1C      5.7922   0.3457  -1.1762   H         1 1      0.0000
    25 H1B      5.7362  -1.2829  -0.5066   H         1 1      0.0000
    26 H10A    -0.7470   0.2737  -1.4348   H         1 1      0.0000
    27 H10B    -0.8825   1.8187  -0.5763   H         1 1      0.0000
    28 H9B     -0.9033  -0.9396   0.7221   H         1 1      0.0000
    29 H5      -6.5945   0.0361  -0.0964   H         1 1      0.0000
    30 H3      -2.7563  -1.7295  -0.7184   H         1 1      0.0000
    31 H12B     1.1859  -1.2327   0.2111   H         1 1      0.0000
    32 C15      3.8268   0.9981   1.5539   C.3       1 1      0.0000
    33 H15A     2.8636   1.5216   1.5148   H         1 1      0.0000
    34 H15C     4.5160   1.5147   0.8745   H         1 1      0.0000
    35 OH       1.5411   1.7255  -1.3225   O.3       1 1      0.0000
    36 OH1      1.1530   2.6269  -1.2007   H         1 1      0.0000
    37 H22      1.2454   1.2171   0.6618   H         1 1      0.0000
    38 C16      4.3722   1.0686   2.9615   C.3       1 1      0.0000
    39 H16C     5.3397   0.5750   3.0254   H         1 1      0.0000
    40 H16A     4.4980   2.1028   3.2750   H         1 1      0.0000
    41 H16B     3.6965   0.5820   3.6617   H         1 1      0.0000
@<TRIPOS>BOND
     1     1     2   ar
     2     1     6   ar
     3     1    29    1
     4     2     3   ar
     5     2     7    1
     6     3     4   ar
     7     3    30    1
     8     4     5   ar
     9     4     8    1
    10     5     6   ar
    11     5     9    1
    12     6    10    1
    13     8    11    1
    14     8    12    1
    15     8    28    1
    16    11    13    1
    17    11    26    1
    18    11    27    1
    19    13    14    1
    20    14    15    1
    21    14    16    1
    22    14    31    1
    23    16    17    1
    24    16    20    2
    25    17    18    1
    26    17    19    1
    27    17    32    1
    28    20    21    1
    29    20    22    1
    30    22    23    1
    31    22    24    1
    32    22    25    1
    33    32    33    1
    34    32    34    1
    35    13    35    1
    36    35    36    1
    37    13    37    1
    38    32    38    1
    39    38    39    1
    40    38    40    1
    41    38    41    1
@<TRIPOS>SUBSTRUCTURE
     1 1           1 GROUP             0 ****  ****    0  
@<TRIPOS>MOLECULE
Molecule Name_00001_00016
    41    41     1     0     0
SMALL
NO_CHARGES
****
Generated from the CSD

@<TRIPOS>ATOM
     1 C5      -5.5698   0.4650  -0.3105   C.ar      1 1      0.0000
     2 C4      -4.6436   0.9234  -1.2223   C.ar      1 1      0.0000
     3 C3      -3.3085   0.5802  -1.0900   C.ar      1 1      0.0000
     4 C8      -2.8825  -0.2259  -0.0456   C.ar      1 1      0.0000
     5 C7      -3.8248  -0.6788   0.8648   C.ar      1 1      0.0000
     6 C6      -5.1602  -0.3362   0.7335   C.ar      1 1      0.0000
     7 H4      -4.9612   1.5547  -2.0456   H         1 1      0.0000
     8 C9      -1.4265  -0.5972   0.1000   C.3       1 1      0.0000
     9 H7      -3.5123  -1.3096   1.6905   H         1 1      0.0000
    10 H6      -5.8856  -0.6992   1.4540   H         1 1      0.0000
    11 C10     -0.6208   0.4323   0.8901   C.3       1 1      0.0000
    12 H9A     -1.3556  -1.5690   0.6040   H         1 1      0.0000
    13 C11      0.8538   0.1080   1.0672   C.3       1 1      0.0000
    14 C12      1.6242   0.2299  -0.2429   C.3       1 1      0.0000
    15 H12A     1.6309   1.2806  -0.5583   H         1 1      0.0000
    16 C13      3.0374  -0.2566  -0.1351   C.2       1 1      0.0000
    17 C14      4.0283   0.6411   0.5433   C.3       1 1      0.0000
    18 H14B     4.8525   0.0282   0.9286   H         1 1      0.0000
    19 H14A     3.5475   1.1265   1.4013   H         1 1      0.0000
    20 N        3.3820  -1.4384  -0.6063   N.pl3     1 1      0.0000
    21 HN       2.6272  -2.0206  -0.9688   H         1 1      0.0000
    22 C        4.7009  -2.0507  -0.5392   C.3       1 1      0.0000
    23 H1A      4.6340  -3.1272  -0.6820   H         1 1      0.0000
    24 H1C      5.3531  -1.6466  -1.3106   H         1 1      0.0000
    25 H1B      5.1647  -1.8652   0.4273   H         1 1      0.0000
    26 H10A    -0.7027   1.4000   0.3799   H         1 1      0.0000
    27 H10B    -1.0737   0.5378   1.8837   H         1 1      0.0000
    28 H9B     -0.9852  -0.7060  -0.8984   H         1 1      0.0000
    29 H5      -6.6160   0.7335  -0.4139   H         1 1      0.0000
    30 H3      -2.5870   0.9467  -1.8128   H         1 1      0.0000
    31 H12B     1.1057  -0.3479  -1.0180   H         1 1      0.0000
    32 C15      4.6002   1.7088  -0.3709   C.3       1 1      0.0000
    33 H15A     3.7807   2.3245  -0.7616   H         1 1      0.0000
    34 H15C     5.0920   1.2261  -1.2244   H         1 1      0.0000
    35 OH       1.4160   1.0073   2.0269   O.3       1 1      0.0000
    36 OH1      0.9358   0.9157   2.8865   H         1 1      0.0000
    37 H22      0.9500  -0.9226   1.4425   H         1 1      0.0000
    38 C16      5.5954   2.5994   0.3363   C.3       1 1      0.0000
    39 H16C     6.4322   2.0171   0.7163   H         1 1      0.0000
    40 H16A     5.9879   3.3540  -0.3422   H         1 1      0.0000
    41 H16B     5.1280   3.1091   1.1763   H         1 1      0.0000
@<TRIPOS>BOND
     1     1     2   ar
     2     1     6   ar
     3     1    29    1
     4     2     3   ar
     5     2     7    1
     6     3     4   ar
     7     3    30    1
     8     4     5   ar
     9     4     8    1
    10     5     6   ar
    11     5     9    1
    12     6    10    1
    13     8    11    1
    14     8    12    1
    15     8    28    1
    16    11    13    1
    17    11    26    1
    18    11    27    1
    19    13    14    1
    20    14    15    1
    21    14    16    1
    22    14    31    1
    23    16    17    1
    24    16    20    2
    25    17    18    1
    26    17    19    1
    27    17    32    1
    28    20    21    1
    29    20    22    1
    30    22    23    1
    31    22    24    1
    32    22    25    1
    33    32    33    1
    34    32    34    1
    35    13    35    1
    36    35    36    1
    37    13    37    1
    38    32    38    1
    39    38    39    1
    40    38    40    1
    41    38    41    1
@<TRIPOS>SUBSTRUCTURE
     1 1           1 GROUP             0 ****  ****    0  
@<TRIPOS>MOLECULE
Molecule Name_00001_00017
    41    41     1     0     0
SMALL
NO_CHARGES
****
Generated from the CSD

@<TRIPOS>ATOM
     1 C5      -4.5894   0.9190   1.2747   C.ar      1 1      0.0000
     2 C4      -4.3155   1.4001   0.0125   C.ar      1 1      0.0000
     3 C3      -3.2950   0.8412  -0.7386   C.ar      1 1      0.0000
     4 C8      -2.5362  -0.2056  -0.2382   C.ar      1 1      0.0000
     5 C7      -2.8220  -0.6786   1.0333   C.ar      1 1      0.0000
     6 C6      -3.8423  -0.1205   1.7852   C.ar      1 1      0.0000
     7 H4      -4.9008   2.2185  -0.3935   H         1 1      0.0000
     8 C9      -1.4218  -0.8124  -1.0560   C.3       1 1      0.0000
     9 H7      -2.2391  -1.4962   1.4444   H         1 1      0.0000
    10 H6      -4.0539  -0.5024   2.7785   H         1 1      0.0000
    11 C10     -0.0884  -0.0873  -0.8847   C.3       1 1      0.0000
    12 H9A     -1.2971  -1.8624  -0.7641   H         1 1      0.0000
    13 C11      1.0703  -0.6574  -1.6868   C.3       1 1      0.0000
    14 C12      2.3616   0.1181  -1.4503   C.3       1 1      0.0000
    15 H12A     2.1893   1.1781  -1.6740   H         1 1      0.0000
    16 C13      2.8683  -0.0085  -0.0458   C.2       1 1      0.0000
    17 C14      3.9750   0.9108   0.3760   C.3       1 1      0.0000
    18 H14B     4.6861   1.0095  -0.4534   H         1 1      0.0000
    19 H14A     4.5125   0.4646   1.2216   H         1 1      0.0000
    20 N        2.3417  -0.8860   0.7850   N.pl3     1 1      0.0000
    21 HN       1.5332  -1.4059   0.4441   H         1 1      0.0000
    22 C        2.7072  -1.0923   2.1788   C.3       1 1      0.0000
    23 H1A      1.8347  -1.3613   2.7706   H         1 1      0.0000
    24 H1C      3.4388  -1.8923   2.2710   H         1 1      0.0000
    25 H1B      3.1390  -0.1884   2.6032   H         1 1      0.0000
    26 H10A    -0.2262   0.9617  -1.1748   H         1 1      0.0000
    27 H10B     0.1831  -0.1083   0.1780   H         1 1      0.0000
    28 H9B     -1.7057  -0.7919  -2.1154   H         1 1      0.0000
    29 H5      -5.3890   1.3564   1.8633   H         1 1      0.0000
    30 H3      -3.0869   1.2274  -1.7309   H         1 1      0.0000
    31 H12B     3.1306  -0.2481  -2.1417   H         1 1      0.0000
    32 C15      3.4927   2.2939   0.7726   C.3       1 1      0.0000
    33 H15A     2.7793   2.2024   1.6008   H         1 1      0.0000
    34 H15C     2.9645   2.7476  -0.0751   H         1 1      0.0000
    35 OH       1.2686  -2.0233  -1.3115   O.3       1 1      0.0000
    36 OH1      0.4515  -2.5430  -1.5121   H         1 1      0.0000
    37 H22      0.8191  -0.6128  -2.7579   H         1 1      0.0000
    38 C16      4.6265   3.2003   1.1931   C.3       1 1      0.0000
    39 H16C     5.3401   3.3270   0.3818   H         1 1      0.0000
    40 H16A     4.2516   4.1830   1.4715   H         1 1      0.0000
    41 H16B     5.1556   2.7847   2.0481   H         1 1      0.0000
@<TRIPOS>BOND
     1     1     2   ar
     2     1     6   ar
     3     1    29    1
     4     2     3   ar
     5     2     7    1
     6     3     4   ar
     7     3    30    1
     8     4     5   ar
     9     4     8    1
    10     5     6   ar
    11     5     9    1
    12     6    10    1
    13     8    11    1
    14     8    12    1
    15     8    28    1
    16    11    13    1
    17    11    26    1
    18    11    27    1
    19    13    14    1
    20    14    15    1
    21    14    16    1
    22    14    31    1
    23    16    17    1
    24    16    20    2
    25    17    18    1
    26    17    19    1
    27    17    32    1
    28    20    21    1
    29    20    22    1
    30    22    23    1
    31    22    24    1
    32    22    25    1
    33    32    33    1
    34    32    34    1
    35    13    35    1
    36    35    36    1
    37    13    37    1
    38    32    38    1
    39    38    39    1
    40    38    40    1
    41    38    41    1
@<TRIPOS>SUBSTRUCTURE
     1 1           1 GROUP             0 ****  ****    0  
@<TRIPOS>MOLECULE
Molecule Name_00001_00018
    41    41     1     0     0
SMALL
NO_CHARGES
****
Generated from the CSD

@<TRIPOS>ATOM
     1 C5      -4.8359  -1.0168   0.9777   C.ar      1 1      0.0000
     2 C4      -4.6395   0.3385   1.1328   C.ar      1 1      0.0000
     3 C3      -3.5942   0.9691   0.4790   C.ar      1 1      0.0000
     4 C8      -2.7328   0.2535  -0.3384   C.ar      1 1      0.0000
     5 C7      -2.9416  -1.1093  -0.4843   C.ar      1 1      0.0000
     6 C6      -3.9867  -1.7409   0.1691   C.ar      1 1      0.0000
     7 H4      -5.3053   0.9126   1.7687   H         1 1      0.0000
     8 C9      -1.5916   0.9408  -1.0484   C.3       1 1      0.0000
     9 H7      -2.2781  -1.6882  -1.1182   H         1 1      0.0000
    10 H6      -4.1371  -2.8081   0.0442   H         1 1      0.0000
    11 C10     -0.3232   1.0273  -0.2017   C.3       1 1      0.0000
    12 H9A     -1.3669   0.3947  -1.9729   H         1 1      0.0000
    13 C11      0.8593   1.7111  -0.8689   C.3       1 1      0.0000
    14 C12      2.0831   1.7456   0.0399   C.3       1 1      0.0000
    15 H12A     1.8120   2.2261   0.9881   H         1 1      0.0000
    16 C13      2.6364   0.3823   0.3242   C.2       1 1      0.0000
    17 C14      3.6686   0.2661   1.4053   C.3       1 1      0.0000
    18 H14B     3.6560  -0.7591   1.7954   H         1 1      0.0000
    19 H14A     3.4038   0.9378   2.2310   H         1 1      0.0000
    20 N        2.2117  -0.6711  -0.3447   N.pl3     1 1      0.0000
    21 HN       1.4435  -0.5156  -0.9971   H         1 1      0.0000
    22 C        2.6313  -2.0515  -0.1510   C.3       1 1      0.0000
    23 H1A      1.9047  -2.7390  -0.5790   H         1 1      0.0000
    24 H1C      3.5917  -2.2330  -0.6289   H         1 1      0.0000
    25 H1B      2.7316  -2.2803   0.9078   H         1 1      0.0000
    26 H10A    -0.5607   1.5708   0.7211   H         1 1      0.0000
    27 H10B    -0.0225   0.0096   0.0764   H         1 1      0.0000
    28 H9B     -1.9045   1.9545  -1.3272   H         1 1      0.0000
    29 H5      -5.6550  -1.5112   1.4896   H         1 1      0.0000
    30 H3      -3.4475   2.0364   0.6080   H         1 1      0.0000
    31 H12B     2.8626   2.3560  -0.4326   H         1 1      0.0000
    32 C15      5.0742   0.5923   0.9355   C.3       1 1      0.0000
    33 H15A     5.0935   1.6161   0.5420   H         1 1      0.0000
    34 H15C     5.3465  -0.0856   0.1171   H         1 1      0.0000
    35 OH       1.1874   1.0067  -2.0698   O.3       1 1      0.0000
    36 OH1      0.4138   1.0253  -2.6856   H         1 1      0.0000
    37 H22      0.5766   2.7438  -1.1251   H         1 1      0.0000
    38 C16      6.0948   0.4679   2.0430   C.3       1 1      0.0000
    39 H16C     6.1131  -0.5456   2.4385   H         1 1      0.0000
    40 H16A     7.0913   0.7072   1.6778   H         1 1      0.0000
    41 H16B     5.8613   1.1466   2.8606   H         1 1      0.0000
@<TRIPOS>BOND
     1     1     2   ar
     2     1     6   ar
     3     1    29    1
     4     2     3   ar
     5     2     7    1
     6     3     4   ar
     7     3    30    1
     8     4     5   ar
     9     4     8    1
    10     5     6   ar
    11     5     9    1
    12     6    10    1
    13     8    11    1
    14     8    12    1
    15     8    28    1
    16    11    13    1
    17    11    26    1
    18    11    27    1
    19    13    14    1
    20    14    15    1
    21    14    16    1
    22    14    31    1
    23    16    17    1
    24    16    20    2
    25    17    18    1
    26    17    19    1
    27    17    32    1
    28    20    21    1
    29    20    22    1
    30    22    23    1
    31    22    24    1
    32    22    25    1
    33    32    33    1
    34    32    34    1
    35    13    35    1
    36    35    36    1
    37    13    37    1
    38    32    38    1
    39    38    39    1
    40    38    40    1
    41    38    41    1
@<TRIPOS>SUBSTRUCTURE
     1 1           1 GROUP             0 ****  ****    0  
@<TRIPOS>MOLECULE
Molecule Name_00001_00019
    41    41     1     0     0
SMALL
NO_CHARGES
****
Generated from the CSD

@<TRIPOS>ATOM
     1 C5      -5.5539   0.6607   0.0873   C.ar      1 1      0.0000
     2 C4      -5.0341   0.6592  -1.1891   C.ar      1 1      0.0000
     3 C3      -3.6959   0.3681  -1.3949   C.ar      1 1      0.0000
     4 C8      -2.8608   0.0740  -0.3280   C.ar      1 1      0.0000
     5 C7      -3.3969   0.0804   0.9506   C.ar      1 1      0.0000
     6 C6      -4.7350   0.3714   1.1574   C.ar      1 1      0.0000
     7 H4      -5.6748   0.8867  -2.0347   H         1 1      0.0000
     8 C9      -1.4014  -0.2400  -0.5524   C.3       1 1      0.0000
     9 H7      -2.7602  -0.1455   1.7996   H         1 1      0.0000
    10 H6      -5.1396   0.3716   2.1641   H         1 1      0.0000
    11 C10     -0.6458  -0.5379   0.7412   C.3       1 1      0.0000
    12 H9A     -1.3224  -1.1072  -1.2197   H         1 1      0.0000
    13 C11      0.8301  -0.8612   0.5732   C.3       1 1      0.0000
    14 C12      1.6373   0.3647   0.1607   C.3       1 1      0.0000
    15 H12A     1.5905   1.1114   0.9631   H         1 1      0.0000
    16 C13      3.0732   0.0469  -0.1272   C.2       1 1      0.0000
    17 C14      3.9666   1.1828  -0.5265   C.3       1 1      0.0000
    18 H14B     3.4104   1.8492  -1.1973   H         1 1      0.0000
    19 H14A     4.8232   0.7887  -1.0868   H         1 1      0.0000
    20 N        3.5275  -1.1851  -0.0133   N.pl3     1 1      0.0000
    21 HN       2.8744  -1.8782   0.3517   H         1 1      0.0000
    22 C        4.8973  -1.6301  -0.2247   C.3       1 1      0.0000
    23 H1A      5.1507  -2.4368   0.4599   H         1 1      0.0000
    24 H1C      5.0318  -1.9937  -1.2413   H         1 1      0.0000
    25 H1B      5.5984  -0.8143  -0.0617   H         1 1      0.0000
    26 H10A    -0.7354   0.3334   1.4017   H         1 1      0.0000
    27 H10B    -1.1315  -1.3868   1.2381   H         1 1      0.0000
    28 H9B     -0.9270   0.6120  -1.0548   H         1 1      0.0000
    29 H5      -6.6023   0.8884   0.2489   H         1 1      0.0000
    30 H3      -3.2961   0.3701  -2.4036   H         1 1      0.0000
    31 H12B     1.1832   0.8077  -0.7343   H         1 1      0.0000
    32 C15      4.4776   1.9917   0.6514   C.3       1 1      0.0000
    33 H15A     5.0335   1.3306   1.3277   H         1 1      0.0000
    34 H15C     3.6232   2.3969   1.2074   H         1 1      0.0000
    35 OH       1.3404  -1.3633   1.8114   O.3       1 1      0.0000
    36 OH1      0.8363  -2.1731   2.0725   H         1 1      0.0000
    37 H22      0.9398  -1.6368  -0.2006   H         1 1      0.0000
    38 C16      5.3750   3.1294   0.2225   C.3       1 1      0.0000
    39 H16C     4.8421   3.8147  -0.4334   H         1 1      0.0000
    40 H16A     5.7258   3.6906   1.0861   H         1 1      0.0000
    41 H16B     6.2441   2.7541  -0.3136   H         1 1      0.0000
@<TRIPOS>BOND
     1     1     2   ar
     2     1     6   ar
     3     1    29    1
     4     2     3   ar
     5     2     7    1
     6     3     4   ar
     7     3    30    1
     8     4     5   ar
     9     4     8    1
    10     5     6   ar
    11     5     9    1
    12     6    10    1
    13     8    11    1
    14     8    12    1
    15     8    28    1
    16    11    13    1
    17    11    26    1
    18    11    27    1
    19    13    14    1
    20    14    15    1
    21    14    16    1
    22    14    31    1
    23    16    17    1
    24    16    20    2
    25    17    18    1
    26    17    19    1
    27    17    32    1
    28    20    21    1
    29    20    22    1
    30    22    23    1
    31    22    24    1
    32    22    25    1
    33    32    33    1
    34    32    34    1
    35    13    35    1
    36    35    36    1
    37    13    37    1
    38    32    38    1
    39    38    39    1
    40    38    40    1
    41    38    41    1
@<TRIPOS>SUBSTRUCTURE
     1 1           1 GROUP             0 ****  ****    0  
@<TRIPOS>MOLECULE
Molecule Name_00001_00020
    41    41     1     0     0
SMALL
NO_CHARGES
****
Generated from the CSD

@<TRIPOS>ATOM
     1 C5      -5.4954   0.6761   0.1102   C.ar      1 1      0.0000
     2 C4      -4.8649   1.2053  -0.9952   C.ar      1 1      0.0000
     3 C3      -3.5092   0.9981  -1.1883   C.ar      1 1      0.0000
     4 C8      -2.7672   0.2591  -0.2799   C.ar      1 1      0.0000
     5 C7      -3.4142  -0.2662   0.8281   C.ar      1 1      0.0000
     6 C6      -4.7698  -0.0596   1.0221   C.ar      1 1      0.0000
     7 H4      -5.4319   1.7855  -1.7157   H         1 1      0.0000
     8 C9      -1.2889   0.0363  -0.4891   C.3       1 1      0.0000
     9 H7      -2.8516  -0.8463   1.5521   H         1 1      0.0000
    10 H6      -5.2617  -0.4779   1.8941   H         1 1      0.0000
    11 C10     -0.6459  -0.8007   0.6150   C.3       1 1      0.0000
    12 H9A     -1.1374  -0.4666  -1.4522   H         1 1      0.0000
    13 C11      0.8440  -1.0562   0.4542   C.3       1 1      0.0000
    14 C12      1.6650   0.2096   0.6742   C.3       1 1      0.0000
    15 H12A     1.5355   0.5453   1.7105   H         1 1      0.0000
    16 C13      3.1255   0.0110   0.4041   C.2       1 1      0.0000
    17 C14      4.0326   1.1877   0.6052   C.3       1 1      0.0000
    18 H14B     5.0473   0.8205   0.8026   H         1 1      0.0000
    19 H14A     3.7057   1.7487   1.4893   H         1 1      0.0000
    20 N        3.5876  -1.1628   0.0219   N.pl3     1 1      0.0000
    21 HN       2.9158  -1.9298  -0.0008   H         1 1      0.0000
    22 C        4.9776  -1.5074  -0.2391   C.3       1 1      0.0000
    23 H1A      5.1149  -2.5867  -0.2332   H         1 1      0.0000
    24 H1C      5.2920  -1.1313  -1.2103   H         1 1      0.0000
    25 H1B      5.6309  -1.0784   0.5176   H         1 1      0.0000
    26 H10A    -0.8074  -0.2910   1.5729   H         1 1      0.0000
    27 H10B    -1.1601  -1.7687   0.6595   H         1 1      0.0000
    28 H9B     -0.7855   1.0098  -0.5381   H         1 1      0.0000
    29 H5      -6.5575   0.8379   0.2618   H         1 1      0.0000
    30 H3      -3.0219   1.4194  -2.0614   H         1 1      0.0000
    31 H12B     1.2848   1.0015   0.0170   H         1 1      0.0000
    32 C15      4.0766   2.1266  -0.5862   C.3       1 1      0.0000
    33 H15A     3.0642   2.4962  -0.7905   H         1 1      0.0000
    34 H15C     4.4143   1.5711  -1.4698   H         1 1      0.0000
    35 OH       1.2508  -2.0488   1.4003   O.3       1 1      0.0000
    36 OH1      0.7385  -2.8807   1.2472   H         1 1      0.0000
    37 H22      1.0340  -1.4316  -0.5633   H         1 1      0.0000
    38 C16      4.9970   3.3032  -0.3583   C.3       1 1      0.0000
    39 H16C     6.0151   2.9665  -0.1743   H         1 1      0.0000
    40 H16A     5.0084   3.9579  -1.2272   H         1 1      0.0000
    41 H16B     4.6723   3.8861   0.5011   H         1 1      0.0000
@<TRIPOS>BOND
     1     1     2   ar
     2     1     6   ar
     3     1    29    1
     4     2     3   ar
     5     2     7    1
     6     3     4   ar
     7     3    30    1
     8     4     5   ar
     9     4     8    1
    10     5     6   ar
    11     5     9    1
    12     6    10    1
    13     8    11    1
    14     8    12    1
    15     8    28    1
    16    11    13    1
    17    11    26    1
    18    11    27    1
    19    13    14    1
    20    14    15    1
    21    14    16    1
    22    14    31    1
    23    16    17    1
    24    16    20    2
    25    17    18    1
    26    17    19    1
    27    17    32    1
    28    20    21    1
    29    20    22    1
    30    22    23    1
    31    22    24    1
    32    22    25    1
    33    32    33    1
    34    32    34    1
    35    13    35    1
    36    35    36    1
    37    13    37    1
    38    32    38    1
    39    38    39    1
    40    38    40    1
    41    38    41    1
@<TRIPOS>SUBSTRUCTURE
     1 1           1 GROUP             0 ****  ****    0  
@<TRIPOS>MOLECULE
Molecule Name_00001_00021
    41    41     1     0     0
SMALL
NO_CHARGES
****
Generated from the CSD

@<TRIPOS>ATOM
     1 C5      -5.5223   0.8327   0.0024   C.ar      1 1      0.0000
     2 C4      -4.9135   0.3494  -1.1356   C.ar      1 1      0.0000
     3 C3      -3.6449  -0.2017  -1.0652   C.ar      1 1      0.0000
     4 C8      -2.9695  -0.2774   0.1432   C.ar      1 1      0.0000
     5 C7      -3.5936   0.2137   1.2797   C.ar      1 1      0.0000
     6 C6      -4.8621   0.7650   1.2103   C.ar      1 1      0.0000
     7 H4      -5.4291   0.4009  -2.0888   H         1 1      0.0000
     8 C9      -1.5854  -0.8752   0.2190   C.3       1 1      0.0000
     9 H7      -3.0818   0.1655   2.2352   H         1 1      0.0000
    10 H6      -5.3373   1.1445   2.1089   H         1 1      0.0000
    11 C10     -0.4775   0.1395  -0.0566   C.3       1 1      0.0000
    12 H9A     -1.4368  -1.3035   1.2179   H         1 1      0.0000
    13 C11      0.9386  -0.4098   0.0069   C.3       1 1      0.0000
    14 C12      1.9786   0.6626  -0.2983   C.3       1 1      0.0000
    15 H12A     1.9319   1.4380   0.4763   H         1 1      0.0000
    16 C13      3.3738   0.1197  -0.3622   C.2       1 1      0.0000
    17 C14      4.4795   1.0868  -0.6622   C.3       1 1      0.0000
    18 H14B     4.1207   1.8135  -1.4015   H         1 1      0.0000
    19 H14A     5.3208   0.5453  -1.1117   H         1 1      0.0000
    20 N        3.6112  -1.1583  -0.1437   N.pl3     1 1      0.0000
    21 HN       2.8139  -1.7258   0.1435   H         1 1      0.0000
    22 C        4.9114  -1.8129  -0.1377   C.3       1 1      0.0000
    23 H1A      4.9382  -2.6103   0.6021   H         1 1      0.0000
    24 H1C      5.1289  -2.2468  -1.1114   H         1 1      0.0000
    25 H1B      5.7006  -1.1030   0.1004   H         1 1      0.0000
    26 H10A    -0.6388   0.5640  -1.0552   H         1 1      0.0000
    27 H10B    -0.5654   0.9545   0.6724   H         1 1      0.0000
    28 H9B     -1.5102  -1.6924  -0.5090   H         1 1      0.0000
    29 H5      -6.5163   1.2643  -0.0523   H         1 1      0.0000
    30 H3      -3.1738  -0.5789  -1.9669   H         1 1      0.0000
    31 H12B     1.7348   1.1347  -1.2581   H         1 1      0.0000
    32 C15      4.9730   1.8377   0.5607   C.3       1 1      0.0000
    33 H15A     5.8658   2.4156   0.2919   H         1 1      0.0000
    34 H15C     5.2625   1.1154   1.3339   H         1 1      0.0000
    35 OH       1.1763  -0.9337   1.3164   O.3       1 1      0.0000
    36 OH1      0.5224  -1.6500   1.5093   H         1 1      0.0000
    37 H22      1.0393  -1.2231  -0.7283   H         1 1      0.0000
    38 C16      3.9277   2.7734   1.1224   C.3       1 1      0.0000
    39 H16C     3.2382   2.2368   1.7708   H         1 1      0.0000
    40 H16A     4.3926   3.5664   1.7043   H         1 1      0.0000
    41 H16B     3.3518   3.2333   0.3220   H         1 1      0.0000
@<TRIPOS>BOND
     1     1     2   ar
     2     1     6   ar
     3     1    29    1
     4     2     3   ar
     5     2     7    1
     6     3     4   ar
     7     3    30    1
     8     4     5   ar
     9     4     8    1
    10     5     6   ar
    11     5     9    1
    12     6    10    1
    13     8    11    1
    14     8    12    1
    15     8    28    1
    16    11    13    1
    17    11    26    1
    18    11    27    1
    19    13    14    1
    20    14    15    1
    21    14    16    1
    22    14    31    1
    23    16    17    1
    24    16    20    2
    25    17    18    1
    26    17    19    1
    27    17    32    1
    28    20    21    1
    29    20    22    1
    30    22    23    1
    31    22    24    1
    32    22    25    1
    33    32    33    1
    34    32    34    1
    35    13    35    1
    36    35    36    1
    37    13    37    1
    38    32    38    1
    39    38    39    1
    40    38    40    1
    41    38    41    1
@<TRIPOS>SUBSTRUCTURE
     1 1           1 GROUP             0 ****  ****    0  
@<TRIPOS>MOLECULE
Molecule Name_00001_00022
    41    41     1     0     0
SMALL
NO_CHARGES
****
Generated from the CSD

@<TRIPOS>ATOM
     1 C5      -5.6383   0.7023  -0.1364   C.ar      1 1      0.0000
     2 C4      -5.0088   0.0646  -1.1835   C.ar      1 1      0.0000
     3 C3      -3.7219  -0.4230  -1.0283   C.ar      1 1      0.0000
     4 C8      -3.0486  -0.2801   0.1751   C.ar      1 1      0.0000
     5 C7      -3.6935   0.3646   1.2194   C.ar      1 1      0.0000
     6 C6      -4.9804   0.8525   1.0653   C.ar      1 1      0.0000
     7 H4      -5.5226  -0.0557  -2.1315   H         1 1      0.0000
     8 C9      -1.6446  -0.8088   0.3428   C.3       1 1      0.0000
     9 H7      -3.1838   0.4883   2.1692   H         1 1      0.0000
    10 H6      -5.4718   1.3542   1.8924   H         1 1      0.0000
    11 C10     -0.5721   0.1870  -0.0943   C.3       1 1      0.0000
    12 H9A     -1.4845  -1.0658   1.3972   H         1 1      0.0000
    13 C11      0.8622  -0.2946   0.0534   C.3       1 1      0.0000
    14 C12      1.8649   0.7510  -0.4221   C.3       1 1      0.0000
    15 H12A     1.7869   1.6392   0.2170   H         1 1      0.0000
    16 C13      3.2789   0.2553  -0.3985   C.2       1 1      0.0000
    17 C14      4.3532   1.2077  -0.8306   C.3       1 1      0.0000
    18 H14B     3.9903   1.7800  -1.6932   H         1 1      0.0000
    19 H14A     5.2312   0.6373  -1.1575   H         1 1      0.0000
    20 N        3.5585  -0.9678   0.0056   N.pl3     1 1      0.0000
    21 HN       2.7786  -1.5157   0.3684   H         1 1      0.0000
    22 C        4.8807  -1.5670   0.1143   C.3       1 1      0.0000
    23 H1A      4.9346  -2.2285   0.9764   H         1 1      0.0000
    24 H1C      5.1140  -2.1494  -0.7746   H         1 1      0.0000
    25 H1B      5.6445  -0.8006   0.2268   H         1 1      0.0000
    26 H10A    -0.7447   0.4399  -1.1477   H         1 1      0.0000
    27 H10B    -0.6912   1.1048   0.4947   H         1 1      0.0000
    28 H9B     -1.5381  -1.7290  -0.2449   H         1 1      0.0000
    29 H5      -6.6467   1.0842  -0.2575   H         1 1      0.0000
    30 H3      -3.2347  -0.9230  -1.8588   H         1 1      0.0000
    31 H12B     1.6093   1.0526  -1.4454   H         1 1      0.0000
    32 C15      4.7727   2.1785   0.2577   C.3       1 1      0.0000
    33 H15A     3.8905   2.7268   0.6103   H         1 1      0.0000
    34 H15C     5.4745   2.9092  -0.1629   H         1 1      0.0000
    35 OH       1.1136  -0.5931   1.4294   O.3       1 1      0.0000
    36 OH1      0.4885  -1.2960   1.7346   H         1 1      0.0000
    37 H22      0.9941  -1.2113  -0.5421   H         1 1      0.0000
    38 C16      5.4247   1.4825   1.4300   C.3       1 1      0.0000
    39 H16C     6.3171   0.9469   1.1129   H         1 1      0.0000
    40 H16A     5.7144   2.2018   2.1931   H         1 1      0.0000
    41 H16B     4.7419   0.7658   1.8814   H         1 1      0.0000
@<TRIPOS>BOND
     1     1     2   ar
     2     1     6   ar
     3     1    29    1
     4     2     3   ar
     5     2     7    1
     6     3     4   ar
     7     3    30    1
     8     4     5   ar
     9     4     8    1
    10     5     6   ar
    11     5     9    1
    12     6    10    1
    13     8    11    1
    14     8    12    1
    15     8    28    1
    16    11    13    1
    17    11    26    1
    18    11    27    1
    19    13    14    1
    20    14    15    1
    21    14    16    1
    22    14    31    1
    23    16    17    1
    24    16    20    2
    25    17    18    1
    26    17    19    1
    27    17    32    1
    28    20    21    1
    29    20    22    1
    30    22    23    1
    31    22    24    1
    32    22    25    1
    33    32    33    1
    34    32    34    1
    35    13    35    1
    36    35    36    1
    37    13    37    1
    38    32    38    1
    39    38    39    1
    40    38    40    1
    41    38    41    1
@<TRIPOS>SUBSTRUCTURE
     1 1           1 GROUP             0 ****  ****    0  
@<TRIPOS>MOLECULE
Molecule Name_00001_00023
    41    41     1     0     0
SMALL
NO_CHARGES
****
Generated from the CSD

@<TRIPOS>ATOM
     1 C5      -5.6046   0.7615  -0.1900   C.ar      1 1      0.0000
     2 C4      -4.8306   0.5843  -1.3164   C.ar      1 1      0.0000
     3 C3      -3.5501   0.0683  -1.2063   C.ar      1 1      0.0000
     4 C8      -3.0277  -0.2776   0.0305   C.ar      1 1      0.0000
     5 C7      -3.8171  -0.0929   1.1551   C.ar      1 1      0.0000
     6 C6      -5.0977   0.4230   1.0461   C.ar      1 1      0.0000
     7 H4      -5.2252   0.8496  -2.2916   H         1 1      0.0000
     8 C9      -1.6307  -0.8370   0.1504   C.3       1 1      0.0000
     9 H7      -3.4268  -0.3558   2.1327   H         1 1      0.0000
    10 H6      -5.7032   0.5610   1.9357   H         1 1      0.0000
    11 C10     -0.5596   0.2450   0.2743   C.3       1 1      0.0000
    12 H9A     -1.5827  -1.4892   1.0311   H         1 1      0.0000
    13 C11      0.8677  -0.2633   0.3981   C.3       1 1      0.0000
    14 C12      1.8717   0.8798   0.4978   C.3       1 1      0.0000
    15 H12A     1.6811   1.4451   1.4185   H         1 1      0.0000
    16 C13      3.2939   0.4075   0.5006   C.2       1 1      0.0000
    17 C14      4.3680   1.4475   0.6122   C.3       1 1      0.0000
    18 H14B     5.2680   0.9805   1.0310   H         1 1      0.0000
    19 H14A     4.0439   2.2277   1.3117   H         1 1      0.0000
    20 N        3.5783  -0.8773   0.4252   N.pl3     1 1      0.0000
    21 HN       2.7865  -1.5198   0.4449   H         1 1      0.0000
    22 C        4.9041  -1.4778   0.4535   C.3       1 1      0.0000
    23 H1A      4.8416  -2.5399   0.6811   H         1 1      0.0000
    24 H1C      5.3983  -1.3662  -0.5093   H         1 1      0.0000
    25 H1B      5.5266  -1.0050   1.2102   H         1 1      0.0000
    26 H10A    -0.6200   0.8931  -0.6087   H         1 1      0.0000
    27 H10B    -0.7865   0.8573   1.1558   H         1 1      0.0000
    28 H9B     -1.4164  -1.4519  -0.7324   H         1 1      0.0000
    29 H5      -6.6080   1.1654  -0.2758   H         1 1      0.0000
    30 H3      -2.9483  -0.0668  -2.0989   H         1 1      0.0000
    31 H12B     1.7233   1.5612  -0.3489   H         1 1      0.0000
    32 C15      4.7248   2.0918  -0.7146   C.3       1 1      0.0000
    33 H15A     5.4307   2.9126  -0.5377   H         1 1      0.0000
    34 H15C     3.8192   2.5201  -1.1617   H         1 1      0.0000
    35 OH       0.9708  -1.0807   1.5673   O.3       1 1      0.0000
    36 OH1      0.3415  -1.8403   1.4960   H         1 1      0.0000
    37 H22      1.1079  -0.8722  -0.4872   H         1 1      0.0000
    38 C16      5.3399   1.1096  -1.6845   C.3       1 1      0.0000
    39 H16C     4.6517   0.2939  -1.8959   H         1 1      0.0000
    40 H16A     5.5851   1.5986  -2.6250   H         1 1      0.0000
    41 H16B     6.2540   0.6845  -1.2752   H         1 1      0.0000
@<TRIPOS>BOND
     1     1     2   ar
     2     1     6   ar
     3     1    29    1
     4     2     3   ar
     5     2     7    1
     6     3     4   ar
     7     3    30    1
     8     4     5   ar
     9     4     8    1
    10     5     6   ar
    11     5     9    1
    12     6    10    1
    13     8    11    1
    14     8    12    1
    15     8    28    1
    16    11    13    1
    17    11    26    1
    18    11    27    1
    19    13    14    1
    20    14    15    1
    21    14    16    1
    22    14    31    1
    23    16    17    1
    24    16    20    2
    25    17    18    1
    26    17    19    1
    27    17    32    1
    28    20    21    1
    29    20    22    1
    30    22    23    1
    31    22    24    1
    32    22    25    1
    33    32    33    1
    34    32    34    1
    35    13    35    1
    36    35    36    1
    37    13    37    1
    38    32    38    1
    39    38    39    1
    40    38    40    1
    41    38    41    1
@<TRIPOS>SUBSTRUCTURE
     1 1           1 GROUP             0 ****  ****    0  
@<TRIPOS>MOLECULE
Molecule Name_00001_00024
    41    41     1     0     0
SMALL
NO_CHARGES
****
Generated from the CSD

@<TRIPOS>ATOM
     1 C5      -5.4892   0.9057   0.0469   C.ar      1 1      0.0000
     2 C4      -4.7472   0.9260  -1.1143   C.ar      1 1      0.0000
     3 C3      -3.4860   0.3548  -1.1440   C.ar      1 1      0.0000
     4 C8      -2.9509  -0.2444  -0.0140   C.ar      1 1      0.0000
     5 C7      -3.7079  -0.2564   1.1475   C.ar      1 1      0.0000
     6 C6      -4.9693   0.3145   1.1781   C.ar      1 1      0.0000
     7 H4      -5.1522   1.3906  -2.0073   H         1 1      0.0000
     8 C9      -1.5748  -0.8640  -0.0458   C.3       1 1      0.0000
     9 H7      -3.3072  -0.7189   2.0434   H         1 1      0.0000
    10 H6      -5.5495   0.2963   2.0948   H         1 1      0.0000
    11 C10     -0.4596   0.1353   0.2556   C.3       1 1      0.0000
    12 H9A     -1.5334  -1.6773   0.6892   H         1 1      0.0000
    13 C11      0.9490  -0.4361   0.2367   C.3       1 1      0.0000
    14 C12      1.9992   0.6302   0.5281   C.3       1 1      0.0000
    15 H12A     1.8499   1.0115   1.5458   H         1 1      0.0000
    16 C13      3.4014   0.1174   0.3996   C.2       1 1      0.0000
    17 C14      4.5175   1.0732   0.6969   C.3       1 1      0.0000
    18 H14B     5.3965   0.4998   1.0161   H         1 1      0.0000
    19 H14A     4.2247   1.7221   1.5313   H         1 1      0.0000
    20 N        3.6335  -1.1335   0.0550   N.pl3     1 1      0.0000
    21 HN       2.8172  -1.7378  -0.0387   H         1 1      0.0000
    22 C        4.9347  -1.7735  -0.0724   C.3       1 1      0.0000
    23 H1A      4.8398  -2.8556  -0.0111   H         1 1      0.0000
    24 H1C      5.3933  -1.5273  -1.0278   H         1 1      0.0000
    25 H1B      5.6055  -1.4466   0.7192   H         1 1      0.0000
    26 H10A    -0.5135   0.9454  -0.4821   H         1 1      0.0000
    27 H10B    -0.6430   0.5705   1.2457   H         1 1      0.0000
    28 H9B     -1.4040  -1.3012  -1.0373   H         1 1      0.0000
    29 H5      -6.4775   1.3528   0.0705   H         1 1      0.0000
    30 H3      -2.9095   0.3765  -2.0629   H         1 1      0.0000
    31 H12B     1.8604   1.4682  -0.1660   H         1 1      0.0000
    32 C15      4.9033   1.9382  -0.4887   C.3       1 1      0.0000
    33 H15A     5.1445   1.2923  -1.3420   H         1 1      0.0000
    34 H15C     5.8045   2.5113  -0.2380   H         1 1      0.0000
    35 OH       1.0452  -1.4697   1.2207   O.3       1 1      0.0000
    36 OH1      0.3851  -2.1785   1.0210   H         1 1      0.0000
    37 H22      1.1459  -0.8678  -0.7569   H         1 1      0.0000
    38 C16      3.8024   2.8940  -0.8865   C.3       1 1      0.0000
    39 H16C     3.2779   3.2650  -0.0085   H         1 1      0.0000
    40 H16A     4.2088   3.7479  -1.4246   H         1 1      0.0000
    41 H16B     3.0778   2.4009  -1.5311   H         1 1      0.0000
@<TRIPOS>BOND
     1     1     2   ar
     2     1     6   ar
     3     1    29    1
     4     2     3   ar
     5     2     7    1
     6     3     4   ar
     7     3    30    1
     8     4     5   ar
     9     4     8    1
    10     5     6   ar
    11     5     9    1
    12     6    10    1
    13     8    11    1
    14     8    12    1
    15     8    28    1
    16    11    13    1
    17    11    26    1
    18    11    27    1
    19    13    14    1
    20    14    15    1
    21    14    16    1
    22    14    31    1
    23    16    17    1
    24    16    20    2
    25    17    18    1
    26    17    19    1
    27    17    32    1
    28    20    21    1
    29    20    22    1
    30    22    23    1
    31    22    24    1
    32    22    25    1
    33    32    33    1
    34    32    34    1
    35    13    35    1
    36    35    36    1
    37    13    37    1
    38    32    38    1
    39    38    39    1
    40    38    40    1
    41    38    41    1
@<TRIPOS>SUBSTRUCTURE
     1 1           1 GROUP             0 ****  ****    0  
@<TRIPOS>MOLECULE
Molecule Name_00001_00025
    41    41     1     0     0
SMALL
NO_CHARGES
****
Generated from the CSD

@<TRIPOS>ATOM
     1 C5      -4.3716  -0.0388  -1.5465   C.ar      1 1      0.0000
     2 C4      -3.3938  -0.9911  -1.3551   C.ar      1 1      0.0000
     3 C3      -2.6131  -0.9662  -0.2115   C.ar      1 1      0.0000
     4 C8      -2.8002   0.0098   0.7551   C.ar      1 1      0.0000
     5 C7      -3.7865   0.9621   0.5489   C.ar      1 1      0.0000
     6 C6      -4.5678   0.9381  -0.5944   C.ar      1 1      0.0000
     7 H4      -3.2354  -1.7619  -2.1020   H         1 1      0.0000
     8 C9      -1.9467   0.0384   2.0000   C.3       1 1      0.0000
     9 H7      -3.9482   1.7356   1.2923   H         1 1      0.0000
    10 H6      -5.3361   1.6901  -0.7408   H         1 1      0.0000
    11 C10     -0.6447   0.8158   1.8172   C.3       1 1      0.0000
    12 H9A     -2.5222   0.4930   2.8158   H         1 1      0.0000
    13 C11      0.3753   0.1692   0.8938   C.3       1 1      0.0000
    14 C12      1.6339   1.0183   0.7534   C.3       1 1      0.0000
    15 H12A     2.1279   1.0914   1.7301   H         1 1      0.0000
    16 C13      2.6040   0.4615  -0.2439   C.2       1 1      0.0000
    17 C14      3.8876   1.2078  -0.4515   C.3       1 1      0.0000
    18 H14B     3.6752   2.2840  -0.4395   H         1 1      0.0000
    19 H14A     4.2927   0.9613  -1.4405   H         1 1      0.0000
    20 N        2.3369  -0.6527  -0.8955   N.pl3     1 1      0.0000
    21 HN       1.4843  -1.1432  -0.6262   H         1 1      0.0000
    22 C        3.1966  -1.3239  -1.8596   C.3       1 1      0.0000
    23 H1A      3.0855  -2.4039  -1.7890   H         1 1      0.0000
    24 H1C      2.9456  -1.0232  -2.8746   H         1 1      0.0000
    25 H1B      4.2416  -1.0784  -1.6825   H         1 1      0.0000
    26 H10A    -0.8885   1.8092   1.4206   H         1 1      0.0000
    27 H10B    -0.1818   0.9524   2.8023   H         1 1      0.0000
    28 H9B     -1.7092  -0.9918   2.2926   H         1 1      0.0000
    29 H5      -4.9836  -0.0581  -2.4421   H         1 1      0.0000
    30 H3      -1.8455  -1.7200  -0.0704   H         1 1      0.0000
    31 H12B     1.3491   2.0323   0.4467   H         1 1      0.0000
    32 C15      4.9383   0.9060   0.6011   C.3       1 1      0.0000
    33 H15A     5.1543  -0.1695   0.5959   H         1 1      0.0000
    34 H15C     4.5404   1.1624   1.5907   H         1 1      0.0000
    35 OH       0.7313  -1.1129   1.4186   O.3       1 1      0.0000
    36 OH1     -0.0676  -1.6955   1.4376   H         1 1      0.0000
    37 H22     -0.0775   0.0362  -0.1009   H         1 1      0.0000
    38 C16      6.2214   1.6701   0.3693   C.3       1 1      0.0000
    39 H16C     6.0408   2.7428   0.3910   H         1 1      0.0000
    40 H16A     6.9548   1.4343   1.1376   H         1 1      0.0000
    41 H16B     6.6509   1.4182  -0.5981   H         1 1      0.0000
@<TRIPOS>BOND
     1     1     2   ar
     2     1     6   ar
     3     1    29    1
     4     2     3   ar
     5     2     7    1
     6     3     4   ar
     7     3    30    1
     8     4     5   ar
     9     4     8    1
    10     5     6   ar
    11     5     9    1
    12     6    10    1
    13     8    11    1
    14     8    12    1
    15     8    28    1
    16    11    13    1
    17    11    26    1
    18    11    27    1
    19    13    14    1
    20    14    15    1
    21    14    16    1
    22    14    31    1
    23    16    17    1
    24    16    20    2
    25    17    18    1
    26    17    19    1
    27    17    32    1
    28    20    21    1
    29    20    22    1
    30    22    23    1
    31    22    24    1
    32    22    25    1
    33    32    33    1
    34    32    34    1
    35    13    35    1
    36    35    36    1
    37    13    37    1
    38    32    38    1
    39    38    39    1
    40    38    40    1
    41    38    41    1
@<TRIPOS>SUBSTRUCTURE
     1 1           1 GROUP             0 ****  ****    0  
@<TRIPOS>MOLECULE
Molecule Name_00001_00026
    41    41     1     0     0
SMALL
NO_CHARGES
****
Generated from the CSD

@<TRIPOS>ATOM
     1 C5      -4.1583   0.9780  -1.3716   C.ar      1 1      0.0000
     2 C4      -3.2695  -0.0314  -1.6728   C.ar      1 1      0.0000
     3 C3      -2.5591  -0.6571  -0.6620   C.ar      1 1      0.0000
     4 C8      -2.7286  -0.2827   0.6620   C.ar      1 1      0.0000
     5 C7      -3.6250   0.7349   0.9502   C.ar      1 1      0.0000
     6 C6      -4.3359   1.3613  -0.0598   C.ar      1 1      0.0000
     7 H4      -3.1261  -0.3364  -2.7041   H         1 1      0.0000
     8 C9      -1.9516  -0.9628   1.7632   C.3       1 1      0.0000
     9 H7      -3.7714   1.0444   1.9798   H         1 1      0.0000
    10 H6      -5.0342   2.1557   0.1822   H         1 1      0.0000
    11 C10     -0.5853  -0.3278   2.0141   C.3       1 1      0.0000
    12 H9A     -2.5385  -0.9243   2.6892   H         1 1      0.0000
    13 C11      0.4357  -0.5206   0.9044   C.3       1 1      0.0000
    14 C12      1.7617   0.1592   1.2274   C.3       1 1      0.0000
    15 H12A     2.2004  -0.3140   2.1146   H         1 1      0.0000
    16 C13      2.7444   0.0854   0.0985   C.2       1 1      0.0000
    17 C14      4.0915   0.7079   0.3120   C.3       1 1      0.0000
    18 H14B     4.8129   0.2249  -0.3586   H         1 1      0.0000
    19 H14A     4.4181   0.5176   1.3417   H         1 1      0.0000
    20 N        2.4324  -0.5218  -1.0291   N.pl3     1 1      0.0000
    21 HN       1.5301  -0.9964  -1.0548   H         1 1      0.0000
    22 C        3.2945  -0.7000  -2.1884   C.3       1 1      0.0000
    23 H1A      2.9266  -1.5038  -2.8226   H         1 1      0.0000
    24 H1C      3.3331   0.2101  -2.7834   H         1 1      0.0000
    25 H1B      4.3086  -0.9472  -1.8819   H         1 1      0.0000
    26 H10A    -0.7282   0.7488   2.1685   H         1 1      0.0000
    27 H10B    -0.1732  -0.7475   2.9400   H         1 1      0.0000
    28 H9B     -1.8116  -2.0187   1.5004   H         1 1      0.0000
    29 H5      -4.7153   1.4683  -2.1632   H         1 1      0.0000
    30 H3      -1.8613  -1.4503  -0.9095   H         1 1      0.0000
    31 H12B     1.5742   1.2126   1.4694   H         1 1      0.0000
    32 C15      4.1129   2.2035   0.0562   C.3       1 1      0.0000
    33 H15A     3.3919   2.6928   0.7227   H         1 1      0.0000
    34 H15C     3.7978   2.3964  -0.9767   H         1 1      0.0000
    35 OH       0.6605  -1.9207   0.7169   O.3       1 1      0.0000
    36 OH1     -0.1768  -2.3523   0.4159   H         1 1      0.0000
    37 H22      0.0345  -0.0940  -0.0279   H         1 1      0.0000
    38 C16      5.4808   2.8061   0.2782   C.3       1 1      0.0000
    39 H16C     6.2139   2.3539  -0.3865   H         1 1      0.0000
    40 H16A     5.4659   3.8772   0.0879   H         1 1      0.0000
    41 H16B     5.8099   2.6485   1.3032   H         1 1      0.0000
@<TRIPOS>BOND
     1     1     2   ar
     2     1     6   ar
     3     1    29    1
     4     2     3   ar
     5     2     7    1
     6     3     4   ar
     7     3    30    1
     8     4     5   ar
     9     4     8    1
    10     5     6   ar
    11     5     9    1
    12     6    10    1
    13     8    11    1
    14     8    12    1
    15     8    28    1
    16    11    13    1
    17    11    26    1
    18    11    27    1
    19    13    14    1
    20    14    15    1
    21    14    16    1
    22    14    31    1
    23    16    17    1
    24    16    20    2
    25    17    18    1
    26    17    19    1
    27    17    32    1
    28    20    21    1
    29    20    22    1
    30    22    23    1
    31    22    24    1
    32    22    25    1
    33    32    33    1
    34    32    34    1
    35    13    35    1
    36    35    36    1
    37    13    37    1
    38    32    38    1
    39    38    39    1
    40    38    40    1
    41    38    41    1
@<TRIPOS>SUBSTRUCTURE
     1 1           1 GROUP             0 ****  ****    0  
@<TRIPOS>MOLECULE
Molecule Name_00001_00027
    41    41     1     0     0
SMALL
NO_CHARGES
****
Generated from the CSD

@<TRIPOS>ATOM
     1 C5      -4.4656  -0.1087   1.3930   C.ar      1 1      0.0000
     2 C4      -3.2897   0.3025   1.9827   C.ar      1 1      0.0000
     3 C3      -2.1857   0.5982   1.2006   C.ar      1 1      0.0000
     4 C8      -2.2432   0.4875  -0.1801   C.ar      1 1      0.0000
     5 C7      -3.4320   0.0715  -0.7596   C.ar      1 1      0.0000
     6 C6      -4.5366  -0.2244   0.0215   C.ar      1 1      0.0000
     7 H4      -3.2289   0.3947   3.0620   H         1 1      0.0000
     8 C9      -1.0385   0.8068  -1.0320   C.3       1 1      0.0000
     9 H7      -3.4978  -0.0233  -1.8385   H         1 1      0.0000
    10 H6      -5.4600  -0.5482  -0.4473   H         1 1      0.0000
    11 C10     -0.1035  -0.3862  -1.2204   C.3       1 1      0.0000
    12 H9A     -1.3796   1.1517  -2.0159   H         1 1      0.0000
    13 C11      1.1278  -0.1201  -2.0713   C.3       1 1      0.0000
    14 C12      2.1398   0.7609  -1.3472   C.3       1 1      0.0000
    15 H12A     1.6485   1.6918  -1.0383   H         1 1      0.0000
    16 C13      2.7318   0.0978  -0.1408   C.2       1 1      0.0000
    17 C14      3.5518   0.9472   0.7832   C.3       1 1      0.0000
    18 H14B     4.1628   1.6322   0.1825   H         1 1      0.0000
    19 H14A     4.2359   0.3056   1.3519   H         1 1      0.0000
    20 N        2.5186  -1.1807   0.0992   N.pl3     1 1      0.0000
    21 HN       1.8749  -1.6598  -0.5303   H         1 1      0.0000
    22 C        2.9975  -1.9426   1.2433   C.3       1 1      0.0000
    23 H1A      2.2683  -2.6941   1.5388   H         1 1      0.0000
    24 H1C      3.9298  -2.4504   1.0051   H         1 1      0.0000
    25 H1B      3.1759  -1.2899   2.0953   H         1 1      0.0000
    26 H10A     0.2273  -0.7251  -0.2308   H         1 1      0.0000
    27 H10B    -0.6727  -1.2028  -1.6814   H         1 1      0.0000
    28 H9B     -0.4801   1.6278  -0.5656   H         1 1      0.0000
    29 H5      -5.3308  -0.3403   2.0053   H         1 1      0.0000
    30 H3      -1.2644   0.9206   1.6744   H         1 1      0.0000
    31 H12B     2.9469   1.0243  -2.0420   H         1 1      0.0000
    32 C15      2.7174   1.7616   1.7544   C.3       1 1      0.0000
    33 H15A     2.1020   1.0825   2.3574   H         1 1      0.0000
    34 H15C     2.0401   2.4131   1.1885   H         1 1      0.0000
    35 OH       1.7443  -1.3680  -2.4009   O.3       1 1      0.0000
    36 OH1      1.1001  -1.9352  -2.8922   H         1 1      0.0000
    37 H22      0.8179   0.3830  -3.0003   H         1 1      0.0000
    38 C16      3.5669   2.6083   2.6738   C.3       1 1      0.0000
    39 H16C     4.1733   3.3083   2.1027   H         1 1      0.0000
    40 H16A     2.9431   3.1800   3.3577   H         1 1      0.0000
    41 H16B     4.2347   1.9850   3.2647   H         1 1      0.0000
@<TRIPOS>BOND
     1     1     2   ar
     2     1     6   ar
     3     1    29    1
     4     2     3   ar
     5     2     7    1
     6     3     4   ar
     7     3    30    1
     8     4     5   ar
     9     4     8    1
    10     5     6   ar
    11     5     9    1
    12     6    10    1
    13     8    11    1
    14     8    12    1
    15     8    28    1
    16    11    13    1
    17    11    26    1
    18    11    27    1
    19    13    14    1
    20    14    15    1
    21    14    16    1
    22    14    31    1
    23    16    17    1
    24    16    20    2
    25    17    18    1
    26    17    19    1
    27    17    32    1
    28    20    21    1
    29    20    22    1
    30    22    23    1
    31    22    24    1
    32    22    25    1
    33    32    33    1
    34    32    34    1
    35    13    35    1
    36    35    36    1
    37    13    37    1
    38    32    38    1
    39    38    39    1
    40    38    40    1
    41    38    41    1
@<TRIPOS>SUBSTRUCTURE
     1 1           1 GROUP             0 ****  ****    0  
@<TRIPOS>MOLECULE
Molecule Name_00001_00028
    41    41     1     0     0
SMALL
NO_CHARGES
****
Generated from the CSD

@<TRIPOS>ATOM
     1 C5      -4.8075  -0.4692   1.0906   C.ar      1 1      0.0000
     2 C4      -3.7082  -0.0922   1.8315   C.ar      1 1      0.0000
     3 C3      -2.5656   0.3657   1.1971   C.ar      1 1      0.0000
     4 C8      -2.5075   0.4535  -0.1853   C.ar      1 1      0.0000
     5 C7      -3.6202   0.0698  -0.9180   C.ar      1 1      0.0000
     6 C6      -4.7633  -0.3883  -0.2845   C.ar      1 1      0.0000
     7 H4      -3.7381  -0.1545   2.9143   H         1 1      0.0000
     8 C9      -1.2606   0.9497  -0.8766   C.3       1 1      0.0000
     9 H7      -3.5951   0.1292  -2.0011   H         1 1      0.0000
    10 H6      -5.6261  -0.6843  -0.8721   H         1 1      0.0000
    11 C10     -0.2444  -0.1577  -1.1490   C.3       1 1      0.0000
    12 H9A     -1.5431   1.4169  -1.8281   H         1 1      0.0000
    13 C11      1.0321   0.2871  -1.8446   C.3       1 1      0.0000
    14 C12      1.9298   1.1011  -0.9193   C.3       1 1      0.0000
    15 H12A     1.3612   1.9531  -0.5264   H         1 1      0.0000
    16 C13      2.4633   0.2992   0.2287   C.2       1 1      0.0000
    17 C14      3.1561   1.0439   1.3301   C.3       1 1      0.0000
    18 H14B     3.0972   0.4481   2.2493   H         1 1      0.0000
    19 H14A     2.6300   1.9887   1.5137   H         1 1      0.0000
    20 N        2.3082  -1.0092   0.2675   N.pl3     1 1      0.0000
    21 HN       1.7456  -1.4222  -0.4762   H         1 1      0.0000
    22 C        2.7400  -1.9051   1.3305   C.3       1 1      0.0000
    23 H1A      2.3082  -2.8951   1.1996   H         1 1      0.0000
    24 H1C      3.8233  -2.0057   1.3333   H         1 1      0.0000
    25 H1B      2.4327  -1.5272   2.3033   H         1 1      0.0000
    26 H10A     0.0270  -0.6201  -0.1920   H         1 1      0.0000
    27 H10B    -0.7261  -0.9250  -1.7676   H         1 1      0.0000
    28 H9B     -0.7904   1.7201  -0.2531   H         1 1      0.0000
    29 H5      -5.7030  -0.8278   1.5873   H         1 1      0.0000
    30 H3      -1.7052   0.6596   1.7893   H         1 1      0.0000
    31 H12B     2.7719   1.5004  -1.4979   H         1 1      0.0000
    32 C15      4.6144   1.3409   1.0337   C.3       1 1      0.0000
    33 H15A     4.6808   1.9352   0.1140   H         1 1      0.0000
    34 H15C     5.1460   0.3970   0.8609   H         1 1      0.0000
    35 OH       1.7456  -0.8692  -2.2916   O.3       1 1      0.0000
    36 OH1      1.1769  -1.3892  -2.9113   H         1 1      0.0000
    37 H22      0.7669   0.9040  -2.7170   H         1 1      0.0000
    38 C16      5.2892   2.0915   2.1584   C.3       1 1      0.0000
    39 H16C     5.2577   1.5148   3.0804   H         1 1      0.0000
    40 H16A     6.3316   2.2904   1.9184   H         1 1      0.0000
    41 H16B     4.7950   3.0441   2.3374   H         1 1      0.0000
@<TRIPOS>BOND
     1     1     2   ar
     2     1     6   ar
     3     1    29    1
     4     2     3   ar
     5     2     7    1
     6     3     4   ar
     7     3    30    1
     8     4     5   ar
     9     4     8    1
    10     5     6   ar
    11     5     9    1
    12     6    10    1
    13     8    11    1
    14     8    12    1
    15     8    28    1
    16    11    13    1
    17    11    26    1
    18    11    27    1
    19    13    14    1
    20    14    15    1
    21    14    16    1
    22    14    31    1
    23    16    17    1
    24    16    20    2
    25    17    18    1
    26    17    19    1
    27    17    32    1
    28    20    21    1
    29    20    22    1
    30    22    23    1
    31    22    24    1
    32    22    25    1
    33    32    33    1
    34    32    34    1
    35    13    35    1
    36    35    36    1
    37    13    37    1
    38    32    38    1
    39    38    39    1
    40    38    40    1
    41    38    41    1
@<TRIPOS>SUBSTRUCTURE
     1 1           1 GROUP             0 ****  ****    0  
@<TRIPOS>MOLECULE
Molecule Name_00001_00029
    41    41     1     0     0
SMALL
NO_CHARGES
****
Generated from the CSD

@<TRIPOS>ATOM
     1 C5      -4.5569  -1.0633   0.7480   C.ar      1 1      0.0000
     2 C4      -3.5794  -0.8495   1.6956   C.ar      1 1      0.0000
     3 C3      -2.4929  -0.0417   1.4041   C.ar      1 1      0.0000
     4 C8      -2.3702   0.5629   0.1625   C.ar      1 1      0.0000
     5 C7      -3.3604   0.3380  -0.7814   C.ar      1 1      0.0000
     6 C6      -4.4473  -0.4696  -0.4909   C.ar      1 1      0.0000
     7 H4      -3.6611  -1.3151   2.6722   H         1 1      0.0000
     8 C9      -1.1841   1.4407  -0.1559   C.3       1 1      0.0000
     9 H7      -3.2829   0.8005  -1.7599   H         1 1      0.0000
    10 H6      -5.2143  -0.6352  -1.2403   H         1 1      0.0000
    11 C10      0.0144   0.6593  -0.6907   C.3       1 1      0.0000
    12 H9A     -1.4841   2.1880  -0.9009   H         1 1      0.0000
    13 C11      1.2384   1.4953  -1.0283   C.3       1 1      0.0000
    14 C12      2.3913   0.6364  -1.5360   C.3       1 1      0.0000
    15 H12A     3.1998   1.2910  -1.8840   H         1 1      0.0000
    16 C13      2.9305  -0.2920  -0.4906   C.2       1 1      0.0000
    17 C14      3.7764   0.3041   0.5942   C.3       1 1      0.0000
    18 H14B     4.3252   1.1600   0.1825   H         1 1      0.0000
    19 H14A     4.5160  -0.4361   0.9233   H         1 1      0.0000
    20 N        2.6508  -1.5797  -0.5227   N.pl3     1 1      0.0000
    21 HN       1.9944  -1.8842  -1.2414   H         1 1      0.0000
    22 C        3.0732  -2.5859   0.4408   C.3       1 1      0.0000
    23 H1A      2.3033  -3.3437   0.5696   H         1 1      0.0000
    24 H1C      3.9830  -3.0806   0.1073   H         1 1      0.0000
    25 H1B      3.2698  -2.1340   1.4107   H         1 1      0.0000
    26 H10A     0.3024  -0.0872   0.0597   H         1 1      0.0000
    27 H10B    -0.2979   0.1225  -1.5950   H         1 1      0.0000
    28 H9B     -0.8839   1.9770   0.7527   H         1 1      0.0000
    29 H5      -5.4084  -1.6959   0.9761   H         1 1      0.0000
    30 H3      -1.7282   0.1200   2.1567   H         1 1      0.0000
    31 H12B     2.0469   0.0463  -2.3943   H         1 1      0.0000
    32 C15      2.9762   0.7700   1.7965   C.3       1 1      0.0000
    33 H15A     2.4043  -0.0758   2.1977   H         1 1      0.0000
    34 H15C     2.2595   1.5365   1.4767   H         1 1      0.0000
    35 OH       0.8871   2.4498  -2.0339   O.3       1 1      0.0000
    36 OH1      0.1585   3.0290  -1.6996   H         1 1      0.0000
    37 H22      1.5650   2.0314  -0.1238   H         1 1      0.0000
    38 C16      3.8543   1.3366   2.8880   C.3       1 1      0.0000
    39 H16C     4.4185   2.1926   2.5238   H         1 1      0.0000
    40 H16A     3.2547   1.6618   3.7356   H         1 1      0.0000
    41 H16B     4.5622   0.5893   3.2405   H         1 1      0.0000
@<TRIPOS>BOND
     1     1     2   ar
     2     1     6   ar
     3     1    29    1
     4     2     3   ar
     5     2     7    1
     6     3     4   ar
     7     3    30    1
     8     4     5   ar
     9     4     8    1
    10     5     6   ar
    11     5     9    1
    12     6    10    1
    13     8    11    1
    14     8    12    1
    15     8    28    1
    16    11    13    1
    17    11    26    1
    18    11    27    1
    19    13    14    1
    20    14    15    1
    21    14    16    1
    22    14    31    1
    23    16    17    1
    24    16    20    2
    25    17    18    1
    26    17    19    1
    27    17    32    1
    28    20    21    1
    29    20    22    1
    30    22    23    1
    31    22    24    1
    32    22    25    1
    33    32    33    1
    34    32    34    1
    35    13    35    1
    36    35    36    1
    37    13    37    1
    38    32    38    1
    39    38    39    1
    40    38    40    1
    41    38    41    1
@<TRIPOS>SUBSTRUCTURE
     1 1           1 GROUP             0 ****  ****    0  
@<TRIPOS>MOLECULE
Molecule Name_00001_00030
    41    41     1     0     0
SMALL
NO_CHARGES
****
Generated from the CSD

@<TRIPOS>ATOM
     1 C5      -4.8589  -1.2612   0.2207   C.ar      1 1      0.0000
     2 C4      -3.9609  -1.2695   1.2661   C.ar      1 1      0.0000
     3 C3      -2.8749  -0.4102   1.2571   C.ar      1 1      0.0000
     4 C8      -2.6733   0.4686   0.2038   C.ar      1 1      0.0000
     5 C7      -3.5839   0.4652  -0.8416   C.ar      1 1      0.0000
     6 C6      -4.6702  -0.3938  -0.8335   C.ar      1 1      0.0000
     7 H4      -4.1050  -1.9509   2.0981   H         1 1      0.0000
     8 C9      -1.4876   1.4028   0.1928   C.3       1 1      0.0000
     9 H7      -3.4437   1.1439  -1.6764   H         1 1      0.0000
    10 H6      -5.3743  -0.3839  -1.6590   H         1 1      0.0000
    11 C10     -0.2341   0.7745  -0.4128   C.3       1 1      0.0000
    12 H9A     -1.7482   2.3019  -0.3792   H         1 1      0.0000
    13 C11      0.9918   1.6729  -0.4491   C.3       1 1      0.0000
    14 C12      2.1997   0.9625  -1.0500   C.3       1 1      0.0000
    15 H12A     2.9944   1.6970  -1.2301   H         1 1      0.0000
    16 C13      2.7322  -0.1270  -0.1697   C.2       1 1      0.0000
    17 C14      3.4578   0.2829   1.0766   C.3       1 1      0.0000
    18 H14B     3.3993  -0.5364   1.8037   H         1 1      0.0000
    19 H14A     2.9557   1.1529   1.5171   H         1 1      0.0000
    20 N        2.5487  -1.3950  -0.4795   N.pl3     1 1      0.0000
    21 HN       1.9660  -1.5836  -1.2950   H         1 1      0.0000
    22 C        2.9761  -2.5505   0.2958   C.3       1 1      0.0000
    23 H1A      2.4483  -3.4464  -0.0244   H         1 1      0.0000
    24 H1C      4.0432  -2.7238   0.1726   H         1 1      0.0000
    25 H1B      2.7778  -2.4005   1.3549   H         1 1      0.0000
    26 H10A     0.0141  -0.1252   0.1637   H         1 1      0.0000
    27 H10B    -0.4645   0.4622  -1.4389   H         1 1      0.0000
    28 H9B     -1.2696   1.7136   1.2220   H         1 1      0.0000
    29 H5      -5.7099  -1.9342   0.2275   H         1 1      0.0000
    30 H3      -2.1732  -0.4247   2.0845   H         1 1      0.0000
    31 H12B     1.9167   0.5327  -2.0188   H         1 1      0.0000
    32 C15      4.9178   0.6229   0.8409   C.3       1 1      0.0000
    33 H15A     4.9837   1.4408   0.1128   H         1 1      0.0000
    34 H15C     5.4256  -0.2493   0.4110   H         1 1      0.0000
    35 OH       0.6949   2.8340  -1.2297   O.3       1 1      0.0000
    36 OH1     -0.0708   3.3147  -0.8290   H         1 1      0.0000
    37 H22      1.2364   1.9846   0.5782   H         1 1      0.0000
    38 C16      5.6259   1.0326   2.1116   C.3       1 1      0.0000
    39 H16C     5.5952   0.2304   2.8460   H         1 1      0.0000
    40 H16A     6.6688   1.2702   1.9126   H         1 1      0.0000
    41 H16B     5.1557   1.9108   2.5491   H         1 1      0.0000
@<TRIPOS>BOND
     1     1     2   ar
     2     1     6   ar
     3     1    29    1
     4     2     3   ar
     5     2     7    1
     6     3     4   ar
     7     3    30    1
     8     4     5   ar
     9     4     8    1
    10     5     6   ar
    11     5     9    1
    12     6    10    1
    13     8    11    1
    14     8    12    1
    15     8    28    1
    16    11    13    1
    17    11    26    1
    18    11    27    1
    19    13    14    1
    20    14    15    1
    21    14    16    1
    22    14    31    1
    23    16    17    1
    24    16    20    2
    25    17    18    1
    26    17    19    1
    27    17    32    1
    28    20    21    1
    29    20    22    1
    30    22    23    1
    31    22    24    1
    32    22    25    1
    33    32    33    1
    34    32    34    1
    35    13    35    1
    36    35    36    1
    37    13    37    1
    38    32    38    1
    39    38    39    1
    40    38    40    1
    41    38    41    1
@<TRIPOS>SUBSTRUCTURE
     1 1           1 GROUP             0 ****  ****    0  
@<TRIPOS>MOLECULE
Molecule Name_00001_00031
    41    41     1     0     0
SMALL
NO_CHARGES
****
Generated from the CSD

@<TRIPOS>ATOM
     1 C5      -4.4659   1.5970  -0.6001   C.ar      1 1      0.0000
     2 C4      -3.7245   0.9182  -1.5429   C.ar      1 1      0.0000
     3 C3      -2.7463   0.0221  -1.1452   C.ar      1 1      0.0000
     4 C8      -2.4975  -0.2073   0.1993   C.ar      1 1      0.0000
     5 C7      -3.2501   0.4834   1.1366   C.ar      1 1      0.0000
     6 C6      -4.2285   1.3797   0.7399   C.ar      1 1      0.0000
     7 H4      -3.9075   1.0862  -2.5991   H         1 1      0.0000
     8 C9      -1.4290  -1.1817   0.6323   C.3       1 1      0.0000
     9 H7      -3.0704   0.3198   2.1940   H         1 1      0.0000
    10 H6      -4.8095   1.9120   1.4858   H         1 1      0.0000
    11 C10     -0.0439  -0.5463   0.7362   C.3       1 1      0.0000
    12 H9A     -1.7036  -1.6006   1.6083   H         1 1      0.0000
    13 C11      1.0716  -1.4841   1.1691   C.3       1 1      0.0000
    14 C12      2.3960  -0.7494   1.3448   C.3       1 1      0.0000
    15 H12A     3.1170  -1.4206   1.8275   H         1 1      0.0000
    16 C13      2.9709  -0.2666   0.0478   C.2       1 1      0.0000
    17 C14      2.5289   1.0778  -0.4471   C.3       1 1      0.0000
    18 H14B     1.4663   1.2091  -0.2081   H         1 1      0.0000
    19 H14A     2.6292   1.1115  -1.5388   H         1 1      0.0000
    20 N        3.8452  -0.9964  -0.6159   N.pl3     1 1      0.0000
    21 HN       4.1586  -1.8542  -0.1620   H         1 1      0.0000
    22 C        4.5089  -0.6396  -1.8614   C.3       1 1      0.0000
    23 H1A      5.5241  -1.0303  -1.8830   H         1 1      0.0000
    24 H1C      3.9710  -1.0466  -2.7150   H         1 1      0.0000
    25 H1B      4.5590   0.4410  -1.9770   H         1 1      0.0000
    26 H10A     0.2179  -0.1273  -0.2432   H         1 1      0.0000
    27 H10B    -0.0962   0.2829   1.4525   H         1 1      0.0000
    28 H9B     -1.3891  -2.0092  -0.0867   H         1 1      0.0000
    29 H5      -5.2326   2.2989  -0.9113   H         1 1      0.0000
    30 H3      -2.1675  -0.5070  -1.8951   H         1 1      0.0000
    31 H12B     2.2432   0.1098   2.0094   H         1 1      0.0000
    32 C15      3.3108   2.2301   0.1560   C.3       1 1      0.0000
    33 H15A     4.3751   2.1039  -0.0777   H         1 1      0.0000
    34 H15C     3.2030   2.2059   1.2474   H         1 1      0.0000
    35 OH       0.7085  -2.0982   2.4088   O.3       1 1      0.0000
    36 OH1     -0.0868  -2.6702   2.2737   H         1 1      0.0000
    37 H22      1.1969  -2.2665   0.4047   H         1 1      0.0000
    38 C16      2.8463   3.5728  -0.3587   C.3       1 1      0.0000
    39 H16C     1.7969   3.7349  -0.1213   H         1 1      0.0000
    40 H16A     3.4236   4.3786   0.0898   H         1 1      0.0000
    41 H16B     2.9626   3.6331  -1.4388   H         1 1      0.0000
@<TRIPOS>BOND
     1     1     2   ar
     2     1     6   ar
     3     1    29    1
     4     2     3   ar
     5     2     7    1
     6     3     4   ar
     7     3    30    1
     8     4     5   ar
     9     4     8    1
    10     5     6   ar
    11     5     9    1
    12     6    10    1
    13     8    11    1
    14     8    12    1
    15     8    28    1
    16    11    13    1
    17    11    26    1
    18    11    27    1
    19    13    14    1
    20    14    15    1
    21    14    16    1
    22    14    31    1
    23    16    17    1
    24    16    20    2
    25    17    18    1
    26    17    19    1
    27    17    32    1
    28    20    21    1
    29    20    22    1
    30    22    23    1
    31    22    24    1
    32    22    25    1
    33    32    33    1
    34    32    34    1
    35    13    35    1
    36    35    36    1
    37    13    37    1
    38    32    38    1
    39    38    39    1
    40    38    40    1
    41    38    41    1
@<TRIPOS>SUBSTRUCTURE
     1 1           1 GROUP             0 ****  ****    0  
@<TRIPOS>MOLECULE
Molecule Name_00001_00032
    41    41     1     0     0
SMALL
NO_CHARGES
****
Generated from the CSD

@<TRIPOS>ATOM
     1 C5      -5.4463   0.5656   0.3793   C.ar      1 1      0.0000
     2 C4      -4.5114   1.5215   0.7134   C.ar      1 1      0.0000
     3 C3      -3.1798   1.3388   0.3794   C.ar      1 1      0.0000
     4 C8      -2.7663   0.1992  -0.2933   C.ar      1 1      0.0000
     5 C7      -3.7174  -0.7545  -0.6219   C.ar      1 1      0.0000
     6 C6      -5.0491  -0.5727  -0.2883   C.ar      1 1      0.0000
     7 H4      -4.8192   2.4192   1.2393   H         1 1      0.0000
     8 C9      -1.3143  -0.0011  -0.6543   C.3       1 1      0.0000
     9 H7      -3.4145  -1.6544  -1.1470   H         1 1      0.0000
    10 H6      -5.7815  -1.3282  -0.5532   H         1 1      0.0000
    11 C10     -0.5045  -0.6618   0.4597   C.3       1 1      0.0000
    12 H9A     -1.2542  -0.6229  -1.5561   H         1 1      0.0000
    13 C11      0.9664  -0.8876   0.1489   C.3       1 1      0.0000
    14 C12      1.7450   0.4224   0.1006   C.3       1 1      0.0000
    15 H12A     1.7252   0.8880   1.0937   H         1 1      0.0000
    16 C13      3.1703   0.2377  -0.3237   C.2       1 1      0.0000
    17 C14      4.0303   1.4626  -0.4116   C.3       1 1      0.0000
    18 H14B     3.4258   2.2898  -0.8038   H         1 1      0.0000
    19 H14A     4.8449   1.2815  -1.1234   H         1 1      0.0000
    20 N        3.6448  -0.9629  -0.5900   N.pl3     1 1      0.0000
    21 HN       3.0177  -1.7481  -0.4160   H         1 1      0.0000
    22 C        5.0092  -1.2930  -0.9754   C.3       1 1      0.0000
    23 H1A      5.3035  -2.2566  -0.5647   H         1 1      0.0000
    24 H1C      5.1021  -1.3438  -2.0583   H         1 1      0.0000
    25 H1B      5.7065  -0.5419  -0.6108   H         1 1      0.0000
    26 H10A    -0.5755  -0.0343   1.3567   H         1 1      0.0000
    27 H10B    -0.9619  -1.6315   0.6917   H         1 1      0.0000
    28 H9B     -0.8684   0.9730  -0.8902   H         1 1      0.0000
    29 H5      -6.4896   0.7086   0.6406   H         1 1      0.0000
    30 H3      -2.4513   2.0968   0.6473   H         1 1      0.0000
    31 H12B     1.2500   1.1073  -0.5989   H         1 1      0.0000
    32 C15      4.6234   1.8807   0.9211   C.3       1 1      0.0000
    33 H15A     5.3450   2.6902   0.7556   H         1 1      0.0000
    34 H15C     5.1665   1.0322   1.3553   H         1 1      0.0000
    35 OH       1.5308  -1.7312   1.1568   O.3       1 1      0.0000
    36 OH1      1.0450  -2.5924   1.1769   H         1 1      0.0000
    37 H22      1.0521  -1.3892  -0.8274   H         1 1      0.0000
    38 C16      3.5701   2.3480   1.8988   C.3       1 1      0.0000
    39 H16C     3.1116   1.5015   2.4056   H         1 1      0.0000
    40 H16A     4.0062   2.9992   2.6535   H         1 1      0.0000
    41 H16B     2.7861   2.9012   1.3859   H         1 1      0.0000
@<TRIPOS>BOND
     1     1     2   ar
     2     1     6   ar
     3     1    29    1
     4     2     3   ar
     5     2     7    1
     6     3     4   ar
     7     3    30    1
     8     4     5   ar
     9     4     8    1
    10     5     6   ar
    11     5     9    1
    12     6    10    1
    13     8    11    1
    14     8    12    1
    15     8    28    1
    16    11    13    1
    17    11    26    1
    18    11    27    1
    19    13    14    1
    20    14    15    1
    21    14    16    1
    22    14    31    1
    23    16    17    1
    24    16    20    2
    25    17    18    1
    26    17    19    1
    27    17    32    1
    28    20    21    1
    29    20    22    1
    30    22    23    1
    31    22    24    1
    32    22    25    1
    33    32    33    1
    34    32    34    1
    35    13    35    1
    36    35    36    1
    37    13    37    1
    38    32    38    1
    39    38    39    1
    40    38    40    1
    41    38    41    1
@<TRIPOS>SUBSTRUCTURE
     1 1           1 GROUP             0 ****  ****    0  
@<TRIPOS>MOLECULE
Molecule Name_00001_00033
    41    41     1     0     0
SMALL
NO_CHARGES
****
Generated from the CSD

@<TRIPOS>ATOM
     1 C5      -5.5761   0.4980   0.2384   C.ar      1 1      0.0000
     2 C4      -4.6781   1.5203   0.4575   C.ar      1 1      0.0000
     3 C3      -3.3349   1.3390   0.1729   C.ar      1 1      0.0000
     4 C8      -2.8727   0.1345  -0.3346   C.ar      1 1      0.0000
     5 C7      -3.7870  -0.8854  -0.5488   C.ar      1 1      0.0000
     6 C6      -5.1304  -0.7052  -0.2646   C.ar      1 1      0.0000
     7 H4      -5.0242   2.4692   0.8537   H         1 1      0.0000
     8 C9      -1.4080  -0.0637  -0.6415   C.3       1 1      0.0000
     9 H7      -3.4458  -1.8366  -0.9439   H         1 1      0.0000
    10 H6      -5.8335  -1.5130  -0.4384   H         1 1      0.0000
    11 C10     -0.6017  -0.5433   0.5639   C.3       1 1      0.0000
    12 H9A     -1.3100  -0.7974  -1.4512   H         1 1      0.0000
    13 C11      0.8815  -0.7595   0.3106   C.3       1 1      0.0000
    14 C12      1.6205   0.5576   0.1008   C.3       1 1      0.0000
    15 H12A     1.5640   1.1510   1.0218   H         1 1      0.0000
    16 C13      3.0600   0.3656  -0.2687   C.2       1 1      0.0000
    17 C14      3.8893   1.5960  -0.4831   C.3       1 1      0.0000
    18 H14B     3.2842   2.3402  -1.0155   H         1 1      0.0000
    19 H14A     4.7457   1.3475  -1.1218   H         1 1      0.0000
    20 N        3.5722  -0.8437  -0.3810   N.pl3     1 1      0.0000
    21 HN       2.9619  -1.6208  -0.1284   H         1 1      0.0000
    22 C        4.9537  -1.1773  -0.6960   C.3       1 1      0.0000
    23 H1A      5.2708  -2.0630  -0.1493   H         1 1      0.0000
    24 H1C      5.0692  -1.3762  -1.7594   H         1 1      0.0000
    25 H1B      5.6194  -0.3588  -0.4305   H         1 1      0.0000
    26 H10A    -0.7107   0.1951   1.3679   H         1 1      0.0000
    27 H10B    -1.0339  -1.4882   0.9157   H         1 1      0.0000
    28 H9B     -0.9873   0.8847  -0.9979   H         1 1      0.0000
    29 H5      -6.6285   0.6397   0.4610   H         1 1      0.0000
    30 H3      -2.6357   2.1497   0.3494   H         1 1      0.0000
    31 H12B     1.1206   1.1258  -0.6934   H         1 1      0.0000
    32 C15      4.3983   2.2131   0.8065   C.3       1 1      0.0000
    33 H15A     3.5460   2.4320   1.4615   H         1 1      0.0000
    34 H15C     4.8974   3.1630   0.5784   H         1 1      0.0000
    35 OH       1.4503  -1.4425   1.4312   O.3       1 1      0.0000
    36 OH1      0.9910  -2.3090   1.5580   H         1 1      0.0000
    37 H22      1.0029  -1.3832  -0.5886   H         1 1      0.0000
    38 C16      5.3641   1.3081   1.5358   C.3       1 1      0.0000
    39 H16C     6.2320   1.0912   0.9165   H         1 1      0.0000
    40 H16A     5.7117   1.7755   2.4547   H         1 1      0.0000
    41 H16B     4.8881   0.3646   1.7945   H         1 1      0.0000
@<TRIPOS>BOND
     1     1     2   ar
     2     1     6   ar
     3     1    29    1
     4     2     3   ar
     5     2     7    1
     6     3     4   ar
     7     3    30    1
     8     4     5   ar
     9     4     8    1
    10     5     6   ar
    11     5     9    1
    12     6    10    1
    13     8    11    1
    14     8    12    1
    15     8    28    1
    16    11    13    1
    17    11    26    1
    18    11    27    1
    19    13    14    1
    20    14    15    1
    21    14    16    1
    22    14    31    1
    23    16    17    1
    24    16    20    2
    25    17    18    1
    26    17    19    1
    27    17    32    1
    28    20    21    1
    29    20    22    1
    30    22    23    1
    31    22    24    1
    32    22    25    1
    33    32    33    1
    34    32    34    1
    35    13    35    1
    36    35    36    1
    37    13    37    1
    38    32    38    1
    39    38    39    1
    40    38    40    1
    41    38    41    1
@<TRIPOS>SUBSTRUCTURE
     1 1           1 GROUP             0 ****  ****    0  
@<TRIPOS>MOLECULE
Molecule Name_00001_00034
    41    41     1     0     0
SMALL
NO_CHARGES
****
Generated from the CSD

@<TRIPOS>ATOM
     1 C5      -5.4991   0.5050   0.2280   C.ar      1 1      0.0000
     2 C4      -4.6371   1.0062   1.1793   C.ar      1 1      0.0000
     3 C3      -3.2687   0.9614   0.9707   C.ar      1 1      0.0000
     4 C8      -2.7450   0.4160  -0.1914   C.ar      1 1      0.0000
     5 C7      -3.6238  -0.0856  -1.1391   C.ar      1 1      0.0000
     6 C6      -4.9923  -0.0412  -0.9314   C.ar      1 1      0.0000
     7 H4      -5.0313   1.4369   2.0938   H         1 1      0.0000
     8 C9      -1.2532   0.3644  -0.4170   C.3       1 1      0.0000
     9 H7      -3.2346  -0.5182  -2.0549   H         1 1      0.0000
    10 H6      -5.6670  -0.4374  -1.6831   H         1 1      0.0000
    11 C10     -0.6000  -0.8843   0.1722   C.3       1 1      0.0000
    12 H9A     -1.0550   0.3958  -1.4955   H         1 1      0.0000
    13 C11      0.9036  -0.9876  -0.0264   C.3       1 1      0.0000
    14 C12      1.6598   0.0357   0.8138   C.3       1 1      0.0000
    15 H12A     1.4893  -0.1767   1.8764   H         1 1      0.0000
    16 C13      3.1342   0.0342   0.5460   C.2       1 1      0.0000
    17 C14      3.9808   0.9911   1.3303   C.3       1 1      0.0000
    18 H14B     5.0061   0.6031   1.3701   H         1 1      0.0000
    19 H14A     3.6067   1.0439   2.3600   H         1 1      0.0000
    20 N        3.6590  -0.7938  -0.3352   N.pl3     1 1      0.0000
    21 HN       3.0241  -1.4724  -0.7553   H         1 1      0.0000
    22 C        5.0695  -0.9294  -0.6687   C.3       1 1      0.0000
    23 H1A      5.2553  -1.8697  -1.1835   H         1 1      0.0000
    24 H1C      5.3915  -0.1182  -1.3184   H         1 1      0.0000
    25 H1B      5.6831  -0.9075   0.2293   H         1 1      0.0000
    26 H10A    -0.8085  -0.9074   1.2490   H         1 1      0.0000
    27 H10B    -1.0700  -1.7667  -0.2793   H         1 1      0.0000
    28 H9B     -0.7942   1.2534   0.0328   H         1 1      0.0000
    29 H5      -6.5712   0.5401   0.3910   H         1 1      0.0000
    30 H3      -2.5983   1.3581   1.7259   H         1 1      0.0000
    31 H12B     1.2599   1.0357   0.6051   H         1 1      0.0000
    32 C15      4.0111   2.3905   0.7441   C.3       1 1      0.0000
    33 H15A     4.5542   3.0551   1.4273   H         1 1      0.0000
    34 H15C     2.9842   2.7667   0.6576   H         1 1      0.0000
    35 OH       1.3321  -2.3023   0.3391   O.3       1 1      0.0000
    36 OH1      0.8626  -2.9700  -0.2193   H         1 1      0.0000
    37 H22      1.1358  -0.8174  -1.0891   H         1 1      0.0000
    38 C16      4.6704   2.4312  -0.6150   C.3       1 1      0.0000
    39 H16C     4.1386   1.7965  -1.3208   H         1 1      0.0000
    40 H16A     4.6778   3.4450  -1.0099   H         1 1      0.0000
    41 H16B     5.6995   2.0833  -0.5551   H         1 1      0.0000
@<TRIPOS>BOND
     1     1     2   ar
     2     1     6   ar
     3     1    29    1
     4     2     3   ar
     5     2     7    1
     6     3     4   ar
     7     3    30    1
     8     4     5   ar
     9     4     8    1
    10     5     6   ar
    11     5     9    1
    12     6    10    1
    13     8    11    1
    14     8    12    1
    15     8    28    1
    16    11    13    1
    17    11    26    1
    18    11    27    1
    19    13    14    1
    20    14    15    1
    21    14    16    1
    22    14    31    1
    23    16    17    1
    24    16    20    2
    25    17    18    1
    26    17    19    1
    27    17    32    1
    28    20    21    1
    29    20    22    1
    30    22    23    1
    31    22    24    1
    32    22    25    1
    33    32    33    1
    34    32    34    1
    35    13    35    1
    36    35    36    1
    37    13    37    1
    38    32    38    1
    39    38    39    1
    40    38    40    1
    41    38    41    1
@<TRIPOS>SUBSTRUCTURE
     1 1           1 GROUP             0 ****  ****    0  
@<TRIPOS>MOLECULE
Molecule Name_00001_00035
    41    41     1     0     0
SMALL
NO_CHARGES
****
Generated from the CSD

@<TRIPOS>ATOM
     1 C5      -5.3739   0.5683   0.3799   C.ar      1 1      0.0000
     2 C4      -4.4625   1.0611   1.2887   C.ar      1 1      0.0000
     3 C3      -3.1055   0.9897   1.0214   C.ar      1 1      0.0000
     4 C8      -2.6426   0.4258  -0.1575   C.ar      1 1      0.0000
     5 C7      -3.5706  -0.0669  -1.0620   C.ar      1 1      0.0000
     6 C6      -4.9278   0.0040  -0.7957   C.ar      1 1      0.0000
     7 H4      -4.8088   1.5059   2.2157   H         1 1      0.0000
     8 C9      -1.1632   0.3452  -0.4471   C.3       1 1      0.0000
     9 H7      -3.2294  -0.5136  -1.9901   H         1 1      0.0000
    10 H6      -5.6415  -0.3856  -1.5140   H         1 1      0.0000
    11 C10     -0.5075  -0.9106   0.1239   C.3       1 1      0.0000
    12 H9A     -1.0115   0.3646  -1.5334   H         1 1      0.0000
    13 C11      0.9840  -1.0429  -0.1387   C.3       1 1      0.0000
    14 C12      1.7942  -0.0271   0.6592   C.3       1 1      0.0000
    15 H12A     1.6650  -0.2272   1.7300   H         1 1      0.0000
    16 C13      3.2556  -0.0591   0.3293   C.2       1 1      0.0000
    17 C14      4.1549   0.8765   1.0800   C.3       1 1      0.0000
    18 H14B     5.1665   0.4527   1.0995   H         1 1      0.0000
    19 H14A     3.8088   0.9551   2.1178   H         1 1      0.0000
    20 N        3.7249  -0.8948  -0.5756   N.pl3     1 1      0.0000
    21 HN       3.0584  -1.5581  -0.9704   H         1 1      0.0000
    22 C        5.1168  -1.0592  -0.9688   C.3       1 1      0.0000
    23 H1A      5.2716  -2.0254  -1.4445   H         1 1      0.0000
    24 H1C      5.4126  -0.2839  -1.6725   H         1 1      0.0000
    25 H1B      5.7729  -0.9986  -0.1031   H         1 1      0.0000
    26 H10A    -0.6693  -0.9216   1.2089   H         1 1      0.0000
    27 H10B    -1.0124  -1.7877  -0.2993   H         1 1      0.0000
    28 H9B     -0.6692   1.2292  -0.0252   H         1 1      0.0000
    29 H5      -6.4371   0.6244   0.5889   H         1 1      0.0000
    30 H3      -2.3959   1.3799   1.7435   H         1 1      0.0000
    31 H12B     1.4046   0.9785   0.4582   H         1 1      0.0000
    32 C15      4.2198   2.2667   0.4751   C.3       1 1      0.0000
    33 H15A     4.5132   2.1871  -0.5789   H         1 1      0.0000
    34 H15C     4.9912   2.8492   0.9938   H         1 1      0.0000
    35 OH       1.4043  -2.3624   0.2191   O.3       1 1      0.0000
    36 OH1      0.8991  -3.0257  -0.3127   H         1 1      0.0000
    37 H22      1.1729  -0.8852  -1.2119   H         1 1      0.0000
    38 C16      2.9002   2.9973   0.5682   C.3       1 1      0.0000
    39 H16C     2.3955   2.7643   1.5035   H         1 1      0.0000
    40 H16A     3.0513   4.0738   0.5236   H         1 1      0.0000
    41 H16B     2.2434   2.7130  -0.2513   H         1 1      0.0000
@<TRIPOS>BOND
     1     1     2   ar
     2     1     6   ar
     3     1    29    1
     4     2     3   ar
     5     2     7    1
     6     3     4   ar
     7     3    30    1
     8     4     5   ar
     9     4     8    1
    10     5     6   ar
    11     5     9    1
    12     6    10    1
    13     8    11    1
    14     8    12    1
    15     8    28    1
    16    11    13    1
    17    11    26    1
    18    11    27    1
    19    13    14    1
    20    14    15    1
    21    14    16    1
    22    14    31    1
    23    16    17    1
    24    16    20    2
    25    17    18    1
    26    17    19    1
    27    17    32    1
    28    20    21    1
    29    20    22    1
    30    22    23    1
    31    22    24    1
    32    22    25    1
    33    32    33    1
    34    32    34    1
    35    13    35    1
    36    35    36    1
    37    13    37    1
    38    32    38    1
    39    38    39    1
    40    38    40    1
    41    38    41    1
@<TRIPOS>SUBSTRUCTURE
     1 1           1 GROUP             0 ****  ****    0  
@<TRIPOS>MOLECULE
Molecule Name_00001_00036
    41    41     1     0     0
SMALL
NO_CHARGES
****
Generated from the CSD

@<TRIPOS>ATOM
     1 C5      -4.2972  -0.6515  -1.2997   C.ar      1 1      0.0000
     2 C4      -4.6360  -0.4918   0.0266   C.ar      1 1      0.0000
     3 C3      -3.7776   0.1697   0.8890   C.ar      1 1      0.0000
     4 C8      -2.5708   0.6804   0.4366   C.ar      1 1      0.0000
     5 C7      -2.2424   0.5114  -0.8997   C.ar      1 1      0.0000
     6 C6      -3.1000  -0.1499  -1.7629   C.ar      1 1      0.0000
     7 H4      -5.5772  -0.8852   0.3960   H         1 1      0.0000
     8 C9      -1.6340   1.3985   1.3776   C.3       1 1      0.0000
     9 H7      -1.3019   0.9021  -1.2739   H         1 1      0.0000
    10 H6      -2.8288  -0.2735  -2.8062   H         1 1      0.0000
    11 C10     -0.6804   0.4565   2.1099   C.3       1 1      0.0000
    12 H9A     -1.0465   2.1283   0.8069   H         1 1      0.0000
    13 C11      0.3794  -0.2015   1.2410   C.3       1 1      0.0000
    14 C12      1.4282   0.7989   0.7678   C.3       1 1      0.0000
    15 H12A     1.9666   1.1928   1.6388   H         1 1      0.0000
    16 C13      2.4159   0.1999  -0.1867   C.2       1 1      0.0000
    17 C14      3.5050   1.0905  -0.7048   C.3       1 1      0.0000
    18 H14B     3.0821   2.0820  -0.9085   H         1 1      0.0000
    19 H14A     3.8789   0.6886  -1.6545   H         1 1      0.0000
    20 N        2.3319  -1.0680  -0.5373   N.pl3     1 1      0.0000
    21 HN       1.6169  -1.6228  -0.0671   H         1 1      0.0000
    22 C        3.2371  -1.7878  -1.4212   C.3       1 1      0.0000
    23 H1A      3.3506  -2.8208  -1.0988   H         1 1      0.0000
    24 H1C      2.8583  -1.7910  -2.4411   H         1 1      0.0000
    25 H1B      4.2214  -1.3245  -1.4273   H         1 1      0.0000
    26 H10A    -0.1748   1.0237   2.9011   H         1 1      0.0000
    27 H10B    -1.2732  -0.3323   2.5893   H         1 1      0.0000
    28 H9B     -2.2266   1.9518   2.1166   H         1 1      0.0000
    29 H5      -4.9695  -1.1694  -1.9757   H         1 1      0.0000
    30 H3      -4.0532   0.2897   1.9315   H         1 1      0.0000
    31 H12B     0.9241   1.6412   0.2782   H         1 1      0.0000
    32 C15      4.6680   1.2444   0.2577   C.3       1 1      0.0000
    33 H15A     5.0947   0.2558   0.4674   H         1 1      0.0000
    34 H15C     4.2991   1.6571   1.2048   H         1 1      0.0000
    35 OH       1.0226  -1.2341   1.9932   O.3       1 1      0.0000
    36 OH1      0.3506  -1.8993   2.2829   H         1 1      0.0000
    37 H22     -0.1080  -0.6495   0.3612   H         1 1      0.0000
    38 C16      5.7513   2.1460  -0.2876   C.3       1 1      0.0000
    39 H16C     5.3609   3.1422  -0.4849   H         1 1      0.0000
    40 H16A     6.5706   2.2375   0.4223   H         1 1      0.0000
    41 H16B     6.1517   1.7486  -1.2179   H         1 1      0.0000
@<TRIPOS>BOND
     1     1     2   ar
     2     1     6   ar
     3     1    29    1
     4     2     3   ar
     5     2     7    1
     6     3     4   ar
     7     3    30    1
     8     4     5   ar
     9     4     8    1
    10     5     6   ar
    11     5     9    1
    12     6    10    1
    13     8    11    1
    14     8    12    1
    15     8    28    1
    16    11    13    1
    17    11    26    1
    18    11    27    1
    19    13    14    1
    20    14    15    1
    21    14    16    1
    22    14    31    1
    23    16    17    1
    24    16    20    2
    25    17    18    1
    26    17    19    1
    27    17    32    1
    28    20    21    1
    29    20    22    1
    30    22    23    1
    31    22    24    1
    32    22    25    1
    33    32    33    1
    34    32    34    1
    35    13    35    1
    36    35    36    1
    37    13    37    1
    38    32    38    1
    39    38    39    1
    40    38    40    1
    41    38    41    1
@<TRIPOS>SUBSTRUCTURE
     1 1           1 GROUP             0 ****  ****    0  
@<TRIPOS>MOLECULE
Molecule Name_00001_00037
    41    41     1     0     0
SMALL
NO_CHARGES
****
Generated from the CSD

@<TRIPOS>ATOM
     1 C5      -4.0620   0.3345  -1.4943   C.ar      1 1      0.0000
     2 C4      -4.4858  -0.1610  -0.2801   C.ar      1 1      0.0000
     3 C3      -3.6559  -0.0938   0.8266   C.ar      1 1      0.0000
     4 C8      -2.3927   0.4699   0.7338   C.ar      1 1      0.0000
     5 C7      -1.9790   0.9631  -0.4941   C.ar      1 1      0.0000
     6 C6      -2.8082   0.8965  -1.6013   C.ar      1 1      0.0000
     7 H4      -5.4720  -0.6046  -0.1909   H         1 1      0.0000
     8 C9      -1.4870   0.5400   1.9395   C.3       1 1      0.0000
     9 H7      -0.9934   1.4069  -0.5888   H         1 1      0.0000
    10 H6      -2.4699   1.2875  -2.5552   H         1 1      0.0000
    11 C10     -0.6433  -0.7189   2.1303   C.3       1 1      0.0000
    12 H9A     -0.8197   1.4042   1.8338   H         1 1      0.0000
    13 C11      0.4374  -0.9428   1.0849   C.3       1 1      0.0000
    14 C12      1.5724   0.0670   1.2152   C.3       1 1      0.0000
    15 H12A     2.0680  -0.0737   2.1837   H         1 1      0.0000
    16 C13      2.5909  -0.0571   0.1230   C.2       1 1      0.0000
    17 C14      3.7630   0.8769   0.1607   C.3       1 1      0.0000
    18 H14B     4.5969   0.4176  -0.3844   H         1 1      0.0000
    19 H14A     4.0827   1.0134   1.2010   H         1 1      0.0000
    20 N        2.4609  -0.9684  -0.8204   N.pl3     1 1      0.0000
    21 HN       1.6837  -1.6207  -0.7179   H         1 1      0.0000
    22 C        3.3853  -1.2250  -1.9152   C.3       1 1      0.0000
    23 H1A      3.2043  -2.2053  -2.3511   H         1 1      0.0000
    24 H1C      3.2706  -0.4793  -2.6991   H         1 1      0.0000
    25 H1B      4.4154  -1.1939  -1.5668   H         1 1      0.0000
    26 H10A    -0.1648  -0.6676   3.1161   H         1 1      0.0000
    27 H10B    -1.3127  -1.5880   2.1274   H         1 1      0.0000
    28 H9B     -2.0992   0.6987   2.8359   H         1 1      0.0000
    29 H5      -4.7120   0.2823  -2.3614   H         1 1      0.0000
    30 H3      -3.9985  -0.4871   1.7779   H         1 1      0.0000
    31 H12B     1.1532   1.0806   1.1990   H         1 1      0.0000
    32 C15      3.4717   2.2360  -0.4482   C.3       1 1      0.0000
    33 H15A     2.6369   2.7004   0.0912   H         1 1      0.0000
    34 H15C     3.1627   2.1038  -1.4924   H         1 1      0.0000
    35 OH       0.9655  -2.2633   1.2368   O.3       1 1      0.0000
    36 OH1      0.2379  -2.9245   1.1295   H         1 1      0.0000
    37 H22     -0.0098  -0.8487   0.0833   H         1 1      0.0000
    38 C16      4.6681   3.1578  -0.3979   C.3       1 1      0.0000
    39 H16C     5.5066   2.7317  -0.9447   H         1 1      0.0000
    40 H16A     4.4303   4.1229  -0.8403   H         1 1      0.0000
    41 H16B     4.9835   3.3247   0.6300   H         1 1      0.0000
@<TRIPOS>BOND
     1     1     2   ar
     2     1     6   ar
     3     1    29    1
     4     2     3   ar
     5     2     7    1
     6     3     4   ar
     7     3    30    1
     8     4     5   ar
     9     4     8    1
    10     5     6   ar
    11     5     9    1
    12     6    10    1
    13     8    11    1
    14     8    12    1
    15     8    28    1
    16    11    13    1
    17    11    26    1
    18    11    27    1
    19    13    14    1
    20    14    15    1
    21    14    16    1
    22    14    31    1
    23    16    17    1
    24    16    20    2
    25    17    18    1
    26    17    19    1
    27    17    32    1
    28    20    21    1
    29    20    22    1
    30    22    23    1
    31    22    24    1
    32    22    25    1
    33    32    33    1
    34    32    34    1
    35    13    35    1
    36    35    36    1
    37    13    37    1
    38    32    38    1
    39    38    39    1
    40    38    40    1
    41    38    41    1
@<TRIPOS>SUBSTRUCTURE
     1 1           1 GROUP             0 ****  ****    0  
@<TRIPOS>MOLECULE
Molecule Name_00001_00038
    41    41     1     0     0
SMALL
NO_CHARGES
****
Generated from the CSD

@<TRIPOS>ATOM
     1 C5      -4.8935  -0.3046  -1.2733   C.ar      1 1      0.0000
     2 C4      -5.0253  -0.6933   0.0424   C.ar      1 1      0.0000
     3 C3      -3.9522  -0.5832   0.9109   C.ar      1 1      0.0000
     4 C8      -2.7347  -0.0828   0.4758   C.ar      1 1      0.0000
     5 C7      -2.6161   0.3031  -0.8505   C.ar      1 1      0.0000
     6 C6      -3.6886   0.1935  -1.7199   C.ar      1 1      0.0000
     7 H4      -5.9718  -1.0864   0.3984   H         1 1      0.0000
     8 C9      -1.5643   0.0339   1.4221   C.3       1 1      0.0000
     9 H7      -1.6715   0.6960  -1.2118   H         1 1      0.0000
    10 H6      -3.5799   0.5005  -2.7548   H         1 1      0.0000
    11 C10     -0.3123   0.6062   0.7604   C.3       1 1      0.0000
    12 H9A     -1.8495   0.6778   2.2633   H         1 1      0.0000
    13 C11      0.8983   0.7457   1.6693   C.3       1 1      0.0000
    14 C12      2.1092   1.2952   0.9232   C.3       1 1      0.0000
    15 H12A     2.8778   1.5840   1.6507   H         1 1      0.0000
    16 C13      2.6957   0.3097  -0.0414   C.2       1 1      0.0000
    17 C14      3.8751   0.7542  -0.8532   C.3       1 1      0.0000
    18 H14B     3.7164   1.7939  -1.1648   H         1 1      0.0000
    19 H14A     3.9395   0.1426  -1.7614   H         1 1      0.0000
    20 N        2.1971  -0.9055  -0.1513   N.pl3     1 1      0.0000
    21 HN       1.4551  -1.1530   0.5032   H         1 1      0.0000
    22 C        2.6851  -1.9712  -1.0145   C.3       1 1      0.0000
    23 H1A      2.5627  -2.9410  -0.5368   H         1 1      0.0000
    24 H1C      2.1388  -1.9857  -1.9553   H         1 1      0.0000
    25 H1B      3.7409  -1.8345  -1.2384   H         1 1      0.0000
    26 H10A    -0.0394  -0.0425  -0.0811   H         1 1      0.0000
    27 H10B    -0.5565   1.5960   0.3553   H         1 1      0.0000
    28 H9B     -1.3324  -0.9594   1.8258   H         1 1      0.0000
    29 H5      -5.7340  -0.3904  -1.9540   H         1 1      0.0000
    30 H3      -4.0658  -0.8925   1.9447   H         1 1      0.0000
    31 H12B     1.8124   2.1979   0.3751   H         1 1      0.0000
    32 C15      5.1918   0.6648  -0.1040   C.3       1 1      0.0000
    33 H15A     5.3560  -0.3726   0.2124   H         1 1      0.0000
    34 H15C     5.1347   1.2848   0.7992   H         1 1      0.0000
    35 OH       0.5721   1.6278   2.7469   O.3       1 1      0.0000
    36 OH1     -0.1981   1.2644   3.2497   H         1 1      0.0000
    37 H22      1.1520  -0.2437   2.0802   H         1 1      0.0000
    38 C16      6.3638   1.1181  -0.9435   C.3       1 1      0.0000
    39 H16C     6.2382   2.1532  -1.2542   H         1 1      0.0000
    40 H16A     7.2925   1.0431  -0.3817   H         1 1      0.0000
    41 H16B     6.4579   0.5050  -1.8374   H         1 1      0.0000
@<TRIPOS>BOND
     1     1     2   ar
     2     1     6   ar
     3     1    29    1
     4     2     3   ar
     5     2     7    1
     6     3     4   ar
     7     3    30    1
     8     4     5   ar
     9     4     8    1
    10     5     6   ar
    11     5     9    1
    12     6    10    1
    13     8    11    1
    14     8    12    1
    15     8    28    1
    16    11    13    1
    17    11    26    1
    18    11    27    1
    19    13    14    1
    20    14    15    1
    21    14    16    1
    22    14    31    1
    23    16    17    1
    24    16    20    2
    25    17    18    1
    26    17    19    1
    27    17    32    1
    28    20    21    1
    29    20    22    1
    30    22    23    1
    31    22    24    1
    32    22    25    1
    33    32    33    1
    34    32    34    1
    35    13    35    1
    36    35    36    1
    37    13    37    1
    38    32    38    1
    39    38    39    1
    40    38    40    1
    41    38    41    1
@<TRIPOS>SUBSTRUCTURE
     1 1           1 GROUP             0 ****  ****    0  
@<TRIPOS>MOLECULE
Molecule Name_00001_00039
    41    41     1     0     0
SMALL
NO_CHARGES
****
Generated from the CSD

@<TRIPOS>ATOM
     1 C5      -4.6556   0.6563  -1.2421   C.ar      1 1      0.0000
     2 C4      -4.8800  -0.3384  -0.3149   C.ar      1 1      0.0000
     3 C3      -3.8491  -0.7745   0.5006   C.ar      1 1      0.0000
     4 C8      -2.5817  -0.2214   0.4004   C.ar      1 1      0.0000
     5 C7      -2.3702   0.7775  -0.5374   C.ar      1 1      0.0000
     6 C6      -3.4004   1.2143  -1.3534   C.ar      1 1      0.0000
     7 H4      -5.8664  -0.7809  -0.2238   H         1 1      0.0000
     8 C9      -1.4575  -0.6993   1.2873   C.3       1 1      0.0000
     9 H7      -1.3853   1.2226  -0.6332   H         1 1      0.0000
    10 H6      -3.2188   1.9974  -2.0821   H         1 1      0.0000
    11 C10     -0.1394   0.0284   1.0301   C.3       1 1      0.0000
    12 H9A     -1.7458  -0.5556   2.3360   H         1 1      0.0000
    13 C11      1.0283  -0.4141   1.8971   C.3       1 1      0.0000
    14 C12      2.3083   0.3405   1.5553   C.3       1 1      0.0000
    15 H12A     3.0542   0.1541   2.3378   H         1 1      0.0000
    16 C13      2.8822  -0.0564   0.2292   C.2       1 1      0.0000
    17 C14      4.1278   0.6445  -0.2234   C.3       1 1      0.0000
    18 H14B     4.6585  -0.0031  -0.9322   H         1 1      0.0000
    19 H14A     4.7872   0.8017   0.6389   H         1 1      0.0000
    20 N        2.3155  -1.0000  -0.4960   N.pl3     1 1      0.0000
    21 HN       1.5263  -1.4870  -0.0714   H         1 1      0.0000
    22 C        2.7809  -1.5095  -1.7777   C.3       1 1      0.0000
    23 H1A      2.2861  -2.4470  -2.0227   H         1 1      0.0000
    24 H1C      2.5721  -0.7982  -2.5740   H         1 1      0.0000
    25 H1B      3.8539  -1.6880  -1.7563   H         1 1      0.0000
    26 H10A     0.1363  -0.1183  -0.0215   H         1 1      0.0000
    27 H10B    -0.3002   1.1020   1.1880   H         1 1      0.0000
    28 H9B     -1.3092  -1.7742   1.1262   H         1 1      0.0000
    29 H5      -5.4631   0.9984  -1.8810   H         1 1      0.0000
    30 H3      -4.0356  -1.5585   1.2270   H         1 1      0.0000
    31 H12B     2.0972   1.4170   1.5453   H         1 1      0.0000
    32 C15      3.8600   1.9812  -0.8899   C.3       1 1      0.0000
    33 H15A     3.3275   2.6335  -0.1868   H         1 1      0.0000
    34 H15C     3.2100   1.8258  -1.7598   H         1 1      0.0000
    35 OH       0.7015  -0.1843   3.2705   O.3       1 1      0.0000
    36 OH1     -0.1151  -0.6905   3.5050   H         1 1      0.0000
    37 H22      1.1982  -1.4911   1.7445   H         1 1      0.0000
    38 C16      5.1307   2.6667  -1.3364   C.3       1 1      0.0000
    39 H16C     5.6700   2.0505  -2.0528   H         1 1      0.0000
    40 H16A     4.9084   3.6208  -1.8096   H         1 1      0.0000
    41 H16B     5.7865   2.8535  -0.4886   H         1 1      0.0000
@<TRIPOS>BOND
     1     1     2   ar
     2     1     6   ar
     3     1    29    1
     4     2     3   ar
     5     2     7    1
     6     3     4   ar
     7     3    30    1
     8     4     5   ar
     9     4     8    1
    10     5     6   ar
    11     5     9    1
    12     6    10    1
    13     8    11    1
    14     8    12    1
    15     8    28    1
    16    11    13    1
    17    11    26    1
    18    11    27    1
    19    13    14    1
    20    14    15    1
    21    14    16    1
    22    14    31    1
    23    16    17    1
    24    16    20    2
    25    17    18    1
    26    17    19    1
    27    17    32    1
    28    20    21    1
    29    20    22    1
    30    22    23    1
    31    22    24    1
    32    22    25    1
    33    32    33    1
    34    32    34    1
    35    13    35    1
    36    35    36    1
    37    13    37    1
    38    32    38    1
    39    38    39    1
    40    38    40    1
    41    38    41    1
@<TRIPOS>SUBSTRUCTURE
     1 1           1 GROUP             0 ****  ****    0  
@<TRIPOS>MOLECULE
Molecule Name_00001_00040
    41    41     1     0     0
SMALL
NO_CHARGES
****
Generated from the CSD

@<TRIPOS>ATOM
     1 C5      -4.7831  -0.1249  -1.2215   C.ar      1 1      0.0000
     2 C4      -4.7485  -0.4143   0.1255   C.ar      1 1      0.0000
     3 C3      -3.5985  -0.1749   0.8591   C.ar      1 1      0.0000
     4 C8      -2.4694   0.3575   0.2560   C.ar      1 1      0.0000
     5 C7      -2.5180   0.6426  -1.0999   C.ar      1 1      0.0000
     6 C6      -3.6675   0.4035  -1.8344   C.ar      1 1      0.0000
     7 H4      -5.6242  -0.8308   0.6123   H         1 1      0.0000
     8 C9      -1.2150   0.6153   1.0553   C.3       1 1      0.0000
     9 H7      -1.6447   1.0582  -1.5917   H         1 1      0.0000
    10 H6      -3.6898   0.6326  -2.8947   H         1 1      0.0000
    11 C10     -0.2963  -0.6020   1.1397   C.3       1 1      0.0000
    12 H9A     -0.6651   1.4463   0.5966   H         1 1      0.0000
    13 C11      0.9835  -0.3977   1.9343   C.3       1 1      0.0000
    14 C12      1.8846   0.6560   1.2999   C.3       1 1      0.0000
    15 H12A     2.6752   0.9265   2.0107   H         1 1      0.0000
    16 C13      2.5149   0.1908   0.0224   C.2       1 1      0.0000
    17 C14      3.3975   1.1592  -0.7063   C.3       1 1      0.0000
    18 H14B     2.9446   2.1569  -0.6534   H         1 1      0.0000
    19 H14A     3.4491   0.8749  -1.7644   H         1 1      0.0000
    20 N        2.3090  -1.0316  -0.4256   N.pl3     1 1      0.0000
    21 HN       1.7708  -1.6522   0.1788   H         1 1      0.0000
    22 C        2.8816  -1.6266  -1.6244   C.3       1 1      0.0000
    23 H1A      3.0775  -2.6861  -1.4732   H         1 1      0.0000
    24 H1C      2.2017  -1.5248  -2.4676   H         1 1      0.0000
    25 H1B      3.8200  -1.1424  -1.8860   H         1 1      0.0000
    26 H10A    -0.8576  -1.4271   1.5953   H         1 1      0.0000
    27 H10B    -0.0261  -0.9031   0.1200   H         1 1      0.0000
    28 H9B     -1.4963   0.9213   2.0705   H         1 1      0.0000
    29 H5      -5.6839  -0.3122  -1.7965   H         1 1      0.0000
    30 H3      -3.5811  -0.4067   1.9189   H         1 1      0.0000
    31 H12B     1.2937   1.5580   1.0988   H         1 1      0.0000
    32 C15      4.8058   1.2321  -0.1458   C.3       1 1      0.0000
    33 H15A     5.2641   0.2366  -0.1940   H         1 1      0.0000
    34 H15C     4.7582   1.5276   0.9096   H         1 1      0.0000
    35 OH       0.6463   0.0124   3.2624   O.3       1 1      0.0000
    36 OH1      0.0812  -0.6786   3.6881   H         1 1      0.0000
    37 H22      1.5303  -1.3522   1.9819   H         1 1      0.0000
    38 C16      5.6743   2.2143  -0.8972   C.3       1 1      0.0000
    39 H16C     5.2544   3.2168  -0.8478   H         1 1      0.0000
    40 H16A     6.6762   2.2453  -0.4742   H         1 1      0.0000
    41 H16B     5.7573   1.9329  -1.9449   H         1 1      0.0000
@<TRIPOS>BOND
     1     1     2   ar
     2     1     6   ar
     3     1    29    1
     4     2     3   ar
     5     2     7    1
     6     3     4   ar
     7     3    30    1
     8     4     5   ar
     9     4     8    1
    10     5     6   ar
    11     5     9    1
    12     6    10    1
    13     8    11    1
    14     8    12    1
    15     8    28    1
    16    11    13    1
    17    11    26    1
    18    11    27    1
    19    13    14    1
    20    14    15    1
    21    14    16    1
    22    14    31    1
    23    16    17    1
    24    16    20    2
    25    17    18    1
    26    17    19    1
    27    17    32    1
    28    20    21    1
    29    20    22    1
    30    22    23    1
    31    22    24    1
    32    22    25    1
    33    32    33    1
    34    32    34    1
    35    13    35    1
    36    35    36    1
    37    13    37    1
    38    32    38    1
    39    38    39    1
    40    38    40    1
    41    38    41    1
@<TRIPOS>SUBSTRUCTURE
     1 1           1 GROUP             0 ****  ****    0  
@<TRIPOS>MOLECULE
Molecule Name_00001_00041
    41    41     1     0     0
SMALL
NO_CHARGES
****
Generated from the CSD

@<TRIPOS>ATOM
     1 C5      -4.5005   0.6090  -1.1592   C.ar      1 1      0.0000
     2 C4      -4.5373  -0.1587  -0.0152   C.ar      1 1      0.0000
     3 C3      -3.4013  -0.3007   0.7640   C.ar      1 1      0.0000
     4 C8      -2.2148   0.3232   0.4102   C.ar      1 1      0.0000
     5 C7      -2.1920   1.0913  -0.7437   C.ar      1 1      0.0000
     6 C6      -3.3275   1.2340  -1.5236   C.ar      1 1      0.0000
     7 H4      -5.4584  -0.6529   0.2755   H         1 1      0.0000
     8 C9      -0.9759   0.1654   1.2581   C.3       1 1      0.0000
     9 H7      -1.2732   1.5869  -1.0394   H         1 1      0.0000
    10 H6      -3.2936   1.8392  -2.4235   H         1 1      0.0000
    11 C10     -0.1514  -1.0673   0.8925   C.3       1 1      0.0000
    12 H9A     -0.3506   1.0596   1.1445   H         1 1      0.0000
    13 C11      1.1092  -1.2750   1.7163   C.3       1 1      0.0000
    14 C12      2.1073  -0.1383   1.5249   C.3       1 1      0.0000
    15 H12A     2.8882  -0.2140   2.2916   H         1 1      0.0000
    16 C13      2.7496  -0.1487   0.1711   C.2       1 1      0.0000
    17 C14      3.7265   0.9453  -0.1397   C.3       1 1      0.0000
    18 H14B     4.4117   0.5940  -0.9210   H         1 1      0.0000
    19 H14A     4.3253   1.1592   0.7540   H         1 1      0.0000
    20 N        2.4727  -1.0986  -0.6998   N.pl3     1 1      0.0000
    21 HN       1.8688  -1.8527  -0.3729   H         1 1      0.0000
    22 C        3.0452  -1.2538  -2.0291   C.3       1 1      0.0000
    23 H1A      2.8213  -2.2389  -2.4329   H         1 1      0.0000
    24 H1C      2.6422  -0.5084  -2.7116   H         1 1      0.0000
    25 H1B      4.1264  -1.1369  -2.0005   H         1 1      0.0000
    26 H10A    -0.7875  -1.9539   1.0053   H         1 1      0.0000
    27 H10B     0.1343  -0.9918  -0.1640   H         1 1      0.0000
    28 H9B     -1.2721   0.0970   2.3121   H         1 1      0.0000
    29 H5      -5.3904   0.7208  -1.7698   H         1 1      0.0000
    30 H3      -3.4403  -0.9077   1.6625   H         1 1      0.0000
    31 H12B     1.5910   0.8190   1.6679   H         1 1      0.0000
    32 C15      3.0665   2.2282  -0.6101   C.3       1 1      0.0000
    33 H15A     2.3780   2.5842   0.1662   H         1 1      0.0000
    34 H15C     2.4760   2.0198  -1.5108   H         1 1      0.0000
    35 OH       0.7531  -1.3578   3.0991   O.3       1 1      0.0000
    36 OH1      0.1240  -2.1089   3.2339   H         1 1      0.0000
    37 H22      1.5835  -2.2205   1.4111   H         1 1      0.0000
    38 C16      4.0719   3.3140  -0.9165   C.3       1 1      0.0000
    39 H16C     4.7561   2.9961  -1.7004   H         1 1      0.0000
    40 H16A     3.5711   4.2203  -1.2506   H         1 1      0.0000
    41 H16B     4.6584   3.5571  -0.0329   H         1 1      0.0000
@<TRIPOS>BOND
     1     1     2   ar
     2     1     6   ar
     3     1    29    1
     4     2     3   ar
     5     2     7    1
     6     3     4   ar
     7     3    30    1
     8     4     5   ar
     9     4     8    1
    10     5     6   ar
    11     5     9    1
    12     6    10    1
    13     8    11    1
    14     8    12    1
    15     8    28    1
    16    11    13    1
    17    11    26    1
    18    11    27    1
    19    13    14    1
    20    14    15    1
    21    14    16    1
    22    14    31    1
    23    16    17    1
    24    16    20    2
    25    17    18    1
    26    17    19    1
    27    17    32    1
    28    20    21    1
    29    20    22    1
    30    22    23    1
    31    22    24    1
    32    22    25    1
    33    32    33    1
    34    32    34    1
    35    13    35    1
    36    35    36    1
    37    13    37    1
    38    32    38    1
    39    38    39    1
    40    38    40    1
    41    38    41    1
@<TRIPOS>SUBSTRUCTURE
     1 1           1 GROUP             0 ****  ****    0  
@<TRIPOS>MOLECULE
Molecule Name_00001_00042
    41    41     1     0     0
SMALL
NO_CHARGES
****
Generated from the CSD

@<TRIPOS>ATOM
     1 C5      -5.6059   0.5067  -0.2899   C.ar      1 1      0.0000
     2 C4      -4.9926  -0.5812  -0.8726   C.ar      1 1      0.0000
     3 C3      -3.6857  -0.9013  -0.5446   C.ar      1 1      0.0000
     4 C8      -2.9759  -0.1388   0.3702   C.ar      1 1      0.0000
     5 C7      -3.6050   0.9534   0.9476   C.ar      1 1      0.0000
     6 C6      -4.9118   1.2743   0.6203   C.ar      1 1      0.0000
     7 H4      -5.5348  -1.1883  -1.5900   H         1 1      0.0000
     8 C9      -1.5503  -0.4861   0.7250   C.3       1 1      0.0000
     9 H7      -3.0668   1.5643   1.6649   H         1 1      0.0000
    10 H6      -5.3903   2.1320   1.0815   H         1 1      0.0000
    11 C10     -0.5270   0.1397  -0.2206   C.3       1 1      0.0000
    12 H9A     -1.3453  -0.1469   1.7479   H         1 1      0.0000
    13 C11      0.9267  -0.1779   0.0909   C.3       1 1      0.0000
    14 C12      1.8773   0.4693  -0.9102   C.3       1 1      0.0000
    15 H12A     1.7966   1.5602  -0.8275   H         1 1      0.0000
    16 C13      3.3058   0.0681  -0.7004   C.2       1 1      0.0000
    17 C14      4.2371   1.0968  -0.1329   C.3       1 1      0.0000
    18 H14B     3.9975   2.0714  -0.5759   H         1 1      0.0000
    19 H14A     5.2667   0.8479  -0.4175   H         1 1      0.0000
    20 N        3.7137  -1.1512  -0.9905   N.pl3     1 1      0.0000
    21 HN       2.9953  -1.8126  -1.2847   H         1 1      0.0000
    22 C        5.0545  -1.6869  -0.8054   C.3       1 1      0.0000
    23 H1A      5.0149  -2.7390  -0.5309   H         1 1      0.0000
    24 H1C      5.6350  -1.5974  -1.7212   H         1 1      0.0000
    25 H1B      5.5798  -1.1507  -0.0180   H         1 1      0.0000
    26 H10A    -0.7444  -0.2026  -1.2399   H         1 1      0.0000
    27 H10B    -0.6556   1.2289  -0.1981   H         1 1      0.0000
    28 H9B     -1.4341  -1.5768   0.7054   H         1 1      0.0000
    29 H5      -6.6298   0.7577  -0.5464   H         1 1      0.0000
    30 H3      -3.2115  -1.7595  -1.0093   H         1 1      0.0000
    31 H12B     1.5728   0.1883  -1.9259   H         1 1      0.0000
    32 C15      4.1578   1.2149   1.3780   C.3       1 1      0.0000
    33 H15A     4.3514   0.2326   1.8262   H         1 1      0.0000
    34 H15C     3.1426   1.5180   1.6624   H         1 1      0.0000
    35 OH       1.2355   0.2966   1.4044   O.3       1 1      0.0000
    36 OH1      0.6408  -0.1412   2.0622   H         1 1      0.0000
    37 H22      1.0678  -1.2694   0.0618   H         1 1      0.0000
    38 C16      5.1470   2.2151   1.9300   C.3       1 1      0.0000
    39 H16C     4.9645   3.2055   1.5183   H         1 1      0.0000
    40 H16A     5.0677   2.2784   3.0132   H         1 1      0.0000
    41 H16B     6.1663   1.9271   1.6811   H         1 1      0.0000
@<TRIPOS>BOND
     1     1     2   ar
     2     1     6   ar
     3     1    29    1
     4     2     3   ar
     5     2     7    1
     6     3     4   ar
     7     3    30    1
     8     4     5   ar
     9     4     8    1
    10     5     6   ar
    11     5     9    1
    12     6    10    1
    13     8    11    1
    14     8    12    1
    15     8    28    1
    16    11    13    1
    17    11    26    1
    18    11    27    1
    19    13    14    1
    20    14    15    1
    21    14    16    1
    22    14    31    1
    23    16    17    1
    24    16    20    2
    25    17    18    1
    26    17    19    1
    27    17    32    1
    28    20    21    1
    29    20    22    1
    30    22    23    1
    31    22    24    1
    32    22    25    1
    33    32    33    1
    34    32    34    1
    35    13    35    1
    36    35    36    1
    37    13    37    1
    38    32    38    1
    39    38    39    1
    40    38    40    1
    41    38    41    1
@<TRIPOS>SUBSTRUCTURE
     1 1           1 GROUP             0 ****  ****    0  
@<TRIPOS>MOLECULE
Molecule Name_00001_00043
    41    41     1     0     0
SMALL
NO_CHARGES
****
Generated from the CSD

@<TRIPOS>ATOM
     1 C5      -5.5888   0.3217   0.7012   C.ar      1 1      0.0000
     2 C4      -5.3744   0.5915  -0.6332   C.ar      1 1      0.0000
     3 C3      -4.0888   0.5771  -1.1479   C.ar      1 1      0.0000
     4 C8      -3.0018   0.2922  -0.3359   C.ar      1 1      0.0000
     5 C7      -3.2322   0.0239   1.0047   C.ar      1 1      0.0000
     6 C6      -4.5174   0.0380   1.5204   C.ar      1 1      0.0000
     7 H4      -6.2147   0.8158  -1.2819   H         1 1      0.0000
     8 C9      -1.6003   0.2797  -0.8966   C.3       1 1      0.0000
     9 H7      -2.3952  -0.2000   1.6578   H         1 1      0.0000
    10 H6      -4.6812  -0.1747   2.5716   H         1 1      0.0000
    11 C10     -0.5384  -0.0548   0.1491   C.3       1 1      0.0000
    12 H9A     -1.5477  -0.4576  -1.7072   H         1 1      0.0000
    13 C11      0.8930  -0.0811  -0.3622   C.3       1 1      0.0000
    14 C12      1.8874  -0.4036   0.7478   C.3       1 1      0.0000
    15 H12A     1.6876  -1.4139   1.1256   H         1 1      0.0000
    16 C13      3.3132  -0.3253   0.2935   C.2       1 1      0.0000
    17 C14      3.8946   1.0386   0.0711   C.3       1 1      0.0000
    18 H14B     3.1352   1.6719  -0.4040   H         1 1      0.0000
    19 H14A     4.7417   0.9616  -0.6213   H         1 1      0.0000
    20 N        4.0260  -1.4198   0.1162   N.pl3     1 1      0.0000
    21 HN       3.5809  -2.2992   0.3784   H         1 1      0.0000
    22 C        5.4235  -1.4923  -0.2847   C.3       1 1      0.0000
    23 H1A      5.9200  -2.3316   0.1977   H         1 1      0.0000
    24 H1C      5.5091  -1.6215  -1.3616   H         1 1      0.0000
    25 H1B      5.9523  -0.5821  -0.0100   H         1 1      0.0000
    26 H10A    -0.6034   0.6855   0.9560   H         1 1      0.0000
    27 H10B    -0.7712  -1.0380   0.5765   H         1 1      0.0000
    28 H9B     -1.3801   1.2647  -1.3265   H         1 1      0.0000
    29 H5      -6.5959   0.3327   1.1048   H         1 1      0.0000
    30 H3      -3.9304   0.7914  -2.1996   H         1 1      0.0000
    31 H12B     1.7378   0.2985   1.5773   H         1 1      0.0000
    32 C15      4.3614   1.7115   1.3487   C.3       1 1      0.0000
    33 H15A     5.1200   1.0822   1.8302   H         1 1      0.0000
    34 H15C     3.5135   1.8005   2.0390   H         1 1      0.0000
    35 OH       1.0018  -1.0694  -1.3904   O.3       1 1      0.0000
    36 OH1      0.3792  -0.8501  -2.1267   H         1 1      0.0000
    37 H22      1.1390   0.9050  -0.7854   H         1 1      0.0000
    38 C16      4.9427   3.0836   1.0975   C.3       1 1      0.0000
    39 H16C     4.2037   3.7375   0.6391   H         1 1      0.0000
    40 H16A     5.2684   3.5410   2.0294   H         1 1      0.0000
    41 H16B     5.8010   3.0229   0.4316   H         1 1      0.0000
@<TRIPOS>BOND
     1     1     2   ar
     2     1     6   ar
     3     1    29    1
     4     2     3   ar
     5     2     7    1
     6     3     4   ar
     7     3    30    1
     8     4     5   ar
     9     4     8    1
    10     5     6   ar
    11     5     9    1
    12     6    10    1
    13     8    11    1
    14     8    12    1
    15     8    28    1
    16    11    13    1
    17    11    26    1
    18    11    27    1
    19    13    14    1
    20    14    15    1
    21    14    16    1
    22    14    31    1
    23    16    17    1
    24    16    20    2
    25    17    18    1
    26    17    19    1
    27    17    32    1
    28    20    21    1
    29    20    22    1
    30    22    23    1
    31    22    24    1
    32    22    25    1
    33    32    33    1
    34    32    34    1
    35    13    35    1
    36    35    36    1
    37    13    37    1
    38    32    38    1
    39    38    39    1
    40    38    40    1
    41    38    41    1
@<TRIPOS>SUBSTRUCTURE
     1 1           1 GROUP             0 ****  ****    0  
@<TRIPOS>MOLECULE
Molecule Name_00001_00044
    41    41     1     0     0
SMALL
NO_CHARGES
****
Generated from the CSD

@<TRIPOS>ATOM
     1 C5      -5.5784  -0.2513   0.1686   C.ar      1 1      0.0000
     2 C4      -5.2550   1.0112   0.6166   C.ar      1 1      0.0000
     3 C3      -3.9301   1.4099   0.6764   C.ar      1 1      0.0000
     4 C8      -2.9122   0.5524   0.2885   C.ar      1 1      0.0000
     5 C7      -3.2520  -0.7151  -0.1589   C.ar      1 1      0.0000
     6 C6      -4.5766  -1.1147  -0.2191   C.ar      1 1      0.0000
     7 H4      -6.0402   1.6944   0.9233   H         1 1      0.0000
     8 C9      -1.4679   0.9862   0.3569   C.3       1 1      0.0000
     9 H7      -2.4705  -1.4023  -0.4658   H         1 1      0.0000
    10 H6      -4.8263  -2.1098  -0.5723   H         1 1      0.0000
    11 C10     -0.4942  -0.0933  -0.1118   C.3       1 1      0.0000
    12 H9A     -1.3351   1.8807  -0.2641   H         1 1      0.0000
    13 C11      0.9759   0.2910  -0.0637   C.3       1 1      0.0000
    14 C12      1.8767  -0.8476  -0.5294   C.3       1 1      0.0000
    15 H12A     1.6245  -1.1032  -1.5659   H         1 1      0.0000
    16 C13      3.3339  -0.5069  -0.4512   C.2       1 1      0.0000
    17 C14      3.9738  -0.5121   0.9046   C.3       1 1      0.0000
    18 H14B     5.0297  -0.7887   0.7946   H         1 1      0.0000
    19 H14A     3.4944  -1.2772   1.5273   H         1 1      0.0000
    20 N        4.0220  -0.2321  -1.5413   N.pl3     1 1      0.0000
    21 HN       3.5306  -0.3414  -2.4283   H         1 1      0.0000
    22 C        5.4421   0.0783  -1.6183   C.3       1 1      0.0000
    23 H1A      5.8118  -0.0565  -2.6327   H         1 1      0.0000
    24 H1C      5.6277   1.1093  -1.3245   H         1 1      0.0000
    25 H1B      6.0159  -0.5698  -0.9594   H         1 1      0.0000
    26 H10A    -0.6390  -0.9834   0.5128   H         1 1      0.0000
    27 H10B    -0.7475  -0.3633  -1.1444   H         1 1      0.0000
    28 H9B     -1.2268   1.2595   1.3916   H         1 1      0.0000
    29 H5      -6.6163  -0.5639   0.1213   H         1 1      0.0000
    30 H3      -3.6858   2.4058   1.0312   H         1 1      0.0000
    31 H12B     1.6833  -1.7328   0.0891   H         1 1      0.0000
    32 C15      3.8915   0.8257   1.6161   C.3       1 1      0.0000
    33 H15A     2.8373   1.1010   1.7439   H         1 1      0.0000
    34 H15C     4.3646   1.5945   0.9928   H         1 1      0.0000
    35 OH       1.1872   1.4291  -0.9038   O.3       1 1      0.0000
    36 OH1      0.6269   2.1807  -0.5889   H         1 1      0.0000
    37 H22      1.2421   0.5552   0.9715   H         1 1      0.0000
    38 C16      4.5644   0.8007   2.9690   C.3       1 1      0.0000
    39 H16C     5.6189   0.5512   2.8707   H         1 1      0.0000
    40 H16A     4.4897   1.7713   3.4549   H         1 1      0.0000
    41 H16B     4.1000   0.0605   3.6171   H         1 1      0.0000
@<TRIPOS>BOND
     1     1     2   ar
     2     1     6   ar
     3     1    29    1
     4     2     3   ar
     5     2     7    1
     6     3     4   ar
     7     3    30    1
     8     4     5   ar
     9     4     8    1
    10     5     6   ar
    11     5     9    1
    12     6    10    1
    13     8    11    1
    14     8    12    1
    15     8    28    1
    16    11    13    1
    17    11    26    1
    18    11    27    1
    19    13    14    1
    20    14    15    1
    21    14    16    1
    22    14    31    1
    23    16    17    1
    24    16    20    2
    25    17    18    1
    26    17    19    1
    27    17    32    1
    28    20    21    1
    29    20    22    1
    30    22    23    1
    31    22    24    1
    32    22    25    1
    33    32    33    1
    34    32    34    1
    35    13    35    1
    36    35    36    1
    37    13    37    1
    38    32    38    1
    39    38    39    1
    40    38    40    1
    41    38    41    1
@<TRIPOS>SUBSTRUCTURE
     1 1           1 GROUP             0 ****  ****    0  
@<TRIPOS>MOLECULE
Molecule Name_00001_00045
    41    41     1     0     0
SMALL
NO_CHARGES
****
Generated from the CSD

@<TRIPOS>ATOM
     1 C5      -5.6330   0.4552  -0.4781   C.ar      1 1      0.0000
     2 C4      -5.4386  -0.0397   0.7934   C.ar      1 1      0.0000
     3 C3      -4.1562  -0.2810   1.2574   C.ar      1 1      0.0000
     4 C8      -3.0524  -0.0300   0.4569   C.ar      1 1      0.0000
     5 C7      -3.2629   0.4664  -0.8203   C.ar      1 1      0.0000
     6 C6      -4.5449   0.7081  -1.2852   C.ar      1 1      0.0000
     7 H4      -6.2921  -0.2407   1.4324   H         1 1      0.0000
     8 C9      -1.6549  -0.2963   0.9618   C.3       1 1      0.0000
     9 H7      -2.4128   0.6682  -1.4636   H         1 1      0.0000
    10 H6      -4.6930   1.0974  -2.2871   H         1 1      0.0000
    11 C10     -0.5725   0.0419  -0.0614   C.3       1 1      0.0000
    12 H9A     -1.4855   0.2960   1.8695   H         1 1      0.0000
    13 C11      0.8558  -0.2074   0.3955   C.3       1 1      0.0000
    14 C12      1.8687   0.1378  -0.6906   C.3       1 1      0.0000
    15 H12A     1.8449   1.2195  -0.8722   H         1 1      0.0000
    16 C13      3.2667  -0.2666  -0.3333   C.2       1 1      0.0000
    17 C14      4.0072   0.5943   0.6455   C.3       1 1      0.0000
    18 H14B     4.7852  -0.0102   1.1280   H         1 1      0.0000
    19 H14A     3.3151   0.9288   1.4280   H         1 1      0.0000
    20 N        3.8090  -1.3502  -0.8521   N.pl3     1 1      0.0000
    21 HN       3.2033  -1.9262  -1.4365   H         1 1      0.0000
    22 C        5.1352  -1.8798  -0.5695   C.3       1 1      0.0000
    23 H1A      5.1986  -2.9296  -0.8480   H         1 1      0.0000
    24 H1C      5.8944  -1.3351  -1.1268   H         1 1      0.0000
    25 H1B      5.3675  -1.7955   0.4899   H         1 1      0.0000
    26 H10A    -0.7545  -0.5522  -0.9655   H         1 1      0.0000
    27 H10B    -0.6696   1.1008  -0.3309   H         1 1      0.0000
    28 H9B     -1.5704  -1.3556   1.2339   H         1 1      0.0000
    29 H5      -6.6375   0.6446  -0.8418   H         1 1      0.0000
    30 H3      -4.0137  -0.6711   2.2597   H         1 1      0.0000
    31 H12B     1.5790  -0.3634  -1.6224   H         1 1      0.0000
    32 C15      4.6574   1.8092   0.0097   C.3       1 1      0.0000
    33 H15A     3.8848   2.4175  -0.4766   H         1 1      0.0000
    34 H15C     5.3590   1.4774  -0.7656   H         1 1      0.0000
    35 OH       1.1200   0.5900   1.5531   O.3       1 1      0.0000
    36 OH1      0.4833   0.3513   2.2711   H         1 1      0.0000
    37 H22      0.9656  -1.2705   0.6599   H         1 1      0.0000
    38 C16      5.3967   2.6596   1.0166   C.3       1 1      0.0000
    39 H16C     6.1853   2.0868   1.5002   H         1 1      0.0000
    40 H16A     5.8516   3.5217   0.5333   H         1 1      0.0000
    41 H16B     4.7193   3.0214   1.7873   H         1 1      0.0000
@<TRIPOS>BOND
     1     1     2   ar
     2     1     6   ar
     3     1    29    1
     4     2     3   ar
     5     2     7    1
     6     3     4   ar
     7     3    30    1
     8     4     5   ar
     9     4     8    1
    10     5     6   ar
    11     5     9    1
    12     6    10    1
    13     8    11    1
    14     8    12    1
    15     8    28    1
    16    11    13    1
    17    11    26    1
    18    11    27    1
    19    13    14    1
    20    14    15    1
    21    14    16    1
    22    14    31    1
    23    16    17    1
    24    16    20    2
    25    17    18    1
    26    17    19    1
    27    17    32    1
    28    20    21    1
    29    20    22    1
    30    22    23    1
    31    22    24    1
    32    22    25    1
    33    32    33    1
    34    32    34    1
    35    13    35    1
    36    35    36    1
    37    13    37    1
    38    32    38    1
    39    38    39    1
    40    38    40    1
    41    38    41    1
@<TRIPOS>SUBSTRUCTURE
     1 1           1 GROUP             0 ****  ****    0  
@<TRIPOS>MOLECULE
Molecule Name_00001_00046
    41    41     1     0     0
SMALL
NO_CHARGES
****
Generated from the CSD

@<TRIPOS>ATOM
     1 C5      -5.5138   0.4793   0.4970   C.ar      1 1      0.0000
     2 C4      -5.0738   0.2125  -0.7815   C.ar      1 1      0.0000
     3 C3      -3.7423  -0.0929  -1.0094   C.ar      1 1      0.0000
     4 C8      -2.8344  -0.1362   0.0375   C.ar      1 1      0.0000
     5 C7      -3.2907   0.1355   1.3182   C.ar      1 1      0.0000
     6 C6      -4.6220   0.4410   1.5470   C.ar      1 1      0.0000
     7 H4      -5.7721   0.2418  -1.6114   H         1 1      0.0000
     8 C9      -1.3825  -0.4660  -0.2117   C.3       1 1      0.0000
     9 H7      -2.5963   0.1084   2.1514   H         1 1      0.0000
    10 H6      -4.9636   0.6506   2.5553   H         1 1      0.0000
    11 C10     -0.5415   0.7585  -0.5671   C.3       1 1      0.0000
    12 H9A     -0.9651  -0.9371   0.6868   H         1 1      0.0000
    13 C11      0.9306   0.4834  -0.8286   C.3       1 1      0.0000
    14 C12      1.6343  -0.0674   0.4068   C.3       1 1      0.0000
    15 H12A     1.1923  -1.0366   0.6688   H         1 1      0.0000
    16 C13      3.1094  -0.2412   0.2080   C.2       1 1      0.0000
    17 C14      3.9556   0.9962   0.1899   C.3       1 1      0.0000
    18 H14B     3.4202   1.7809  -0.3587   H         1 1      0.0000
    19 H14A     4.8863   0.7893  -0.3525   H         1 1      0.0000
    20 N        3.6352  -1.4424   0.0732   N.pl3     1 1      0.0000
    21 HN       3.0001  -2.2319   0.1897   H         1 1      0.0000
    22 C        5.0462  -1.7610  -0.0892   C.3       1 1      0.0000
    23 H1A      5.2894  -2.6985   0.4066   H         1 1      0.0000
    24 H1C      5.3004  -1.8590  -1.1425   H         1 1      0.0000
    25 H1B      5.6708  -0.9796   0.3384   H         1 1      0.0000
    26 H10A    -0.9704   1.2235  -1.4633   H         1 1      0.0000
    27 H10B    -0.6176   1.4812   0.2547   H         1 1      0.0000
    28 H9B     -1.3180  -1.1932  -1.0305   H         1 1      0.0000
    29 H5      -6.5569   0.7183   0.6759   H         1 1      0.0000
    30 H3      -3.4056  -0.3008  -2.0196   H         1 1      0.0000
    31 H12B     1.4654   0.6150   1.2489   H         1 1      0.0000
    32 C15      4.2966   1.5147   1.5747   C.3       1 1      0.0000
    33 H15A     4.8308   0.7338   2.1298   H         1 1      0.0000
    34 H15C     3.3678   1.7336   2.1158   H         1 1      0.0000
    35 OH       1.0449  -0.4638  -1.8943   O.3       1 1      0.0000
    36 OH1      0.6109  -0.1019  -2.7059   H         1 1      0.0000
    37 H22      1.4213   1.4221  -1.1292   H         1 1      0.0000
    38 C16      5.1494   2.7614   1.5288   C.3       1 1      0.0000
    39 H16C     4.6344   3.5618   1.0017   H         1 1      0.0000
    40 H16A     5.3779   3.1096   2.5339   H         1 1      0.0000
    41 H16B     6.0890   2.5673   1.0157   H         1 1      0.0000
@<TRIPOS>BOND
     1     1     2   ar
     2     1     6   ar
     3     1    29    1
     4     2     3   ar
     5     2     7    1
     6     3     4   ar
     7     3    30    1
     8     4     5   ar
     9     4     8    1
    10     5     6   ar
    11     5     9    1
    12     6    10    1
    13     8    11    1
    14     8    12    1
    15     8    28    1
    16    11    13    1
    17    11    26    1
    18    11    27    1
    19    13    14    1
    20    14    15    1
    21    14    16    1
    22    14    31    1
    23    16    17    1
    24    16    20    2
    25    17    18    1
    26    17    19    1
    27    17    32    1
    28    20    21    1
    29    20    22    1
    30    22    23    1
    31    22    24    1
    32    22    25    1
    33    32    33    1
    34    32    34    1
    35    13    35    1
    36    35    36    1
    37    13    37    1
    38    32    38    1
    39    38    39    1
    40    38    40    1
    41    38    41    1
@<TRIPOS>SUBSTRUCTURE
     1 1           1 GROUP             0 ****  ****    0  
@<TRIPOS>MOLECULE
Molecule Name_00001_00047
    41    41     1     0     0
SMALL
NO_CHARGES
****
Generated from the CSD

@<TRIPOS>ATOM
     1 C5      -5.5424   0.2958   0.3738   C.ar      1 1      0.0000
     2 C4      -4.9737   0.7374  -0.8014   C.ar      1 1      0.0000
     3 C3      -3.6214   0.5493  -1.0335   C.ar      1 1      0.0000
     4 C8      -2.8209  -0.0830  -0.0946   C.ar      1 1      0.0000
     5 C7      -3.4061  -0.5210   1.0835   C.ar      1 1      0.0000
     6 C6      -4.7583  -0.3334   1.3165   C.ar      1 1      0.0000
     7 H4      -5.5869   1.2336  -1.5464   H         1 1      0.0000
     8 C9      -1.3463  -0.2850  -0.3466   C.3       1 1      0.0000
     9 H7      -2.7971  -1.0169   1.8322   H         1 1      0.0000
    10 H6      -5.2013  -0.6825   2.2434   H         1 1      0.0000
    11 C10     -0.4944   0.9056   0.0894   C.3       1 1      0.0000
    12 H9A     -1.0121  -1.1796   0.1932   H         1 1      0.0000
    13 C11      1.0006   0.7555  -0.1417   C.3       1 1      0.0000
    14 C12      1.5876  -0.3979   0.6643   C.3       1 1      0.0000
    15 H12A     1.0999  -1.3324   0.3605   H         1 1      0.0000
    16 C13      3.0687  -0.5395   0.4851   C.2       1 1      0.0000
    17 C14      3.9487   0.4460   1.1937   C.3       1 1      0.0000
    18 H14B     4.9006  -0.0424   1.4358   H         1 1      0.0000
    19 H14A     3.4760   0.7372   2.1397   H         1 1      0.0000
    20 N        3.5691  -1.5084  -0.2553   N.pl3     1 1      0.0000
    21 HN       2.9041  -2.1875  -0.6249   H         1 1      0.0000
    22 C        4.9792  -1.7864  -0.4868   C.3       1 1      0.0000
    23 H1A      5.1171  -2.8021  -0.8515   H         1 1      0.0000
    24 H1C      5.3904  -1.1023  -1.2261   H         1 1      0.0000
    25 H1B      5.5511  -1.6755   0.4319   H         1 1      0.0000
    26 H10A    -0.8402   1.7943  -0.4528   H         1 1      0.0000
    27 H10B    -0.6634   1.0787   1.1594   H         1 1      0.0000
    28 H9B     -1.1892  -0.4631  -1.4175   H         1 1      0.0000
    29 H5      -6.6018   0.4427   0.5559   H         1 1      0.0000
    30 H3      -3.1831   0.9011  -1.9615   H         1 1      0.0000
    31 H12B     1.3702  -0.2385   1.7277   H         1 1      0.0000
    32 C15      4.2339   1.6947   0.3799   C.3       1 1      0.0000
    33 H15A     3.2867   2.1970   0.1479   H         1 1      0.0000
    34 H15C     4.7009   1.4063  -0.5699   H         1 1      0.0000
    35 OH       1.2352   0.5218  -1.5332   O.3       1 1      0.0000
    36 OH1      0.8778   1.2784  -2.0602   H         1 1      0.0000
    37 H22      1.5031   1.6892   0.1546   H         1 1      0.0000
    38 C16      5.1418   2.6602   1.1060   C.3       1 1      0.0000
    39 H16C     6.0993   2.1947   1.3303   H         1 1      0.0000
    40 H16A     5.3284   3.5442   0.4999   H         1 1      0.0000
    41 H16B     4.6929   2.9807   2.0438   H         1 1      0.0000
@<TRIPOS>BOND
     1     1     2   ar
     2     1     6   ar
     3     1    29    1
     4     2     3   ar
     5     2     7    1
     6     3     4   ar
     7     3    30    1
     8     4     5   ar
     9     4     8    1
    10     5     6   ar
    11     5     9    1
    12     6    10    1
    13     8    11    1
    14     8    12    1
    15     8    28    1
    16    11    13    1
    17    11    26    1
    18    11    27    1
    19    13    14    1
    20    14    15    1
    21    14    16    1
    22    14    31    1
    23    16    17    1
    24    16    20    2
    25    17    18    1
    26    17    19    1
    27    17    32    1
    28    20    21    1
    29    20    22    1
    30    22    23    1
    31    22    24    1
    32    22    25    1
    33    32    33    1
    34    32    34    1
    35    13    35    1
    36    35    36    1
    37    13    37    1
    38    32    38    1
    39    38    39    1
    40    38    40    1
    41    38    41    1
@<TRIPOS>SUBSTRUCTURE
     1 1           1 GROUP             0 ****  ****    0  
@<TRIPOS>MOLECULE
Molecule Name_00001_00048
    41    41     1     0     0
SMALL
NO_CHARGES
****
Generated from the CSD

@<TRIPOS>ATOM
     1 C5      -5.5143   0.2951  -0.3047   C.ar      1 1      0.0000
     2 C4      -5.0150   0.2357   0.9785   C.ar      1 1      0.0000
     3 C3      -3.6492   0.3042   1.1973   C.ar      1 1      0.0000
     4 C8      -2.7656   0.4337   0.1368   C.ar      1 1      0.0000
     5 C7      -3.2818   0.4911  -1.1486   C.ar      1 1      0.0000
     6 C6      -4.6474   0.4227  -1.3685   C.ar      1 1      0.0000
     7 H4      -5.6935   0.1349   1.8191   H         1 1      0.0000
     8 C9      -1.2768   0.5051   0.3756   C.3       1 1      0.0000
     9 H7      -2.6075   0.5908  -1.9928   H         1 1      0.0000
    10 H6      -5.0357   0.4696  -2.3806   H         1 1      0.0000
    11 C10     -0.6130  -0.8690   0.4416   C.3       1 1      0.0000
    12 H9A     -0.8142   1.0865  -0.4316   H         1 1      0.0000
    13 C11      0.8882  -0.8558   0.6806   C.3       1 1      0.0000
    14 C12      1.6387  -0.1682  -0.4545   C.3       1 1      0.0000
    15 H12A     1.3737   0.8963  -0.4664   H         1 1      0.0000
    16 C13      3.1265  -0.2996  -0.3330   C.2       1 1      0.0000
    17 C14      3.8188   0.5753   0.6686   C.3       1 1      0.0000
    18 H14B     4.7645   0.1000   0.9571   H         1 1      0.0000
    19 H14A     3.1987   0.6527   1.5700   H         1 1      0.0000
    20 N        3.7898  -1.1673  -1.0709   N.pl3     1 1      0.0000
    21 HN       3.2304  -1.7852  -1.6586   H         1 1      0.0000
    22 C        5.2218  -1.4263  -1.0329   C.3       1 1      0.0000
    23 H1A      5.4502  -2.3950  -1.4724   H         1 1      0.0000
    24 H1C      5.7658  -0.6654  -1.5886   H         1 1      0.0000
    25 H1B      5.5881  -1.4240  -0.0086   H         1 1      0.0000
    26 H10A    -1.0861  -1.4424   1.2483   H         1 1      0.0000
    27 H10B    -0.8085  -1.3935  -0.5019   H         1 1      0.0000
    28 H9B     -1.0923   1.0362   1.3175   H         1 1      0.0000
    29 H5      -6.5842   0.2418  -0.4766   H         1 1      0.0000
    30 H3      -3.2660   0.2559   2.2112   H         1 1      0.0000
    31 H12B     1.3188  -0.6024  -1.4098   H         1 1      0.0000
    32 C15      4.1123   1.9710   0.1503   C.3       1 1      0.0000
    33 H15A     3.1705   2.4516  -0.1421   H         1 1      0.0000
    34 H15C     4.7421   1.8974  -0.7449   H         1 1      0.0000
    35 OH       1.1585  -0.1680   1.9052   O.3       1 1      0.0000
    36 OH1      0.6935  -0.6236   2.6497   H         1 1      0.0000
    37 H22      1.2452  -1.8938   0.7663   H         1 1      0.0000
    38 C16      4.8096   2.8319   1.1780   C.3       1 1      0.0000
    39 H16C     5.7595   2.3896   1.4711   H         1 1      0.0000
    40 H16A     5.0069   3.8249   0.7794   H         1 1      0.0000
    41 H16B     4.1966   2.9405   2.0702   H         1 1      0.0000
@<TRIPOS>BOND
     1     1     2   ar
     2     1     6   ar
     3     1    29    1
     4     2     3   ar
     5     2     7    1
     6     3     4   ar
     7     3    30    1
     8     4     5   ar
     9     4     8    1
    10     5     6   ar
    11     5     9    1
    12     6    10    1
    13     8    11    1
    14     8    12    1
    15     8    28    1
    16    11    13    1
    17    11    26    1
    18    11    27    1
    19    13    14    1
    20    14    15    1
    21    14    16    1
    22    14    31    1
    23    16    17    1
    24    16    20    2
    25    17    18    1
    26    17    19    1
    27    17    32    1
    28    20    21    1
    29    20    22    1
    30    22    23    1
    31    22    24    1
    32    22    25    1
    33    32    33    1
    34    32    34    1
    35    13    35    1
    36    35    36    1
    37    13    37    1
    38    32    38    1
    39    38    39    1
    40    38    40    1
    41    38    41    1
@<TRIPOS>SUBSTRUCTURE
     1 1           1 GROUP             0 ****  ****    0  
@<TRIPOS>MOLECULE
Molecule Name_00001_00049
    41    41     1     0     0
SMALL
NO_CHARGES
****
Generated from the CSD

@<TRIPOS>ATOM
     1 C5      -5.5047   0.6296  -0.0632   C.ar      1 1      0.0000
     2 C4      -4.9020   1.0340   1.1084   C.ar      1 1      0.0000
     3 C3      -3.5465   0.8257   1.3011   C.ar      1 1      0.0000
     4 C8      -2.7765   0.2116   0.3254   C.ar      1 1      0.0000
     5 C7      -3.3962  -0.1911  -0.8476   C.ar      1 1      0.0000
     6 C6      -4.7517   0.0168  -1.0413   C.ar      1 1      0.0000
     7 H4      -5.4908   1.5166   1.8815   H         1 1      0.0000
     8 C9      -1.2996  -0.0181   0.5372   C.3       1 1      0.0000
     9 H7      -2.8121  -0.6750  -1.6234   H         1 1      0.0000
    10 H6      -5.2218  -0.3036  -1.9652   H         1 1      0.0000
    11 C10     -0.6233  -0.7060  -0.6471   C.3       1 1      0.0000
    12 H9A     -0.8110   0.9477   0.7156   H         1 1      0.0000
    13 C11      0.8666  -0.9621  -0.4869   C.3       1 1      0.0000
    14 C12      1.6551   0.3356  -0.3499   C.3       1 1      0.0000
    15 H12A     1.3455   0.8478   0.5694   H         1 1      0.0000
    16 C13      3.1369   0.1156  -0.3107   C.2       1 1      0.0000
    17 C14      4.0120   1.3236  -0.1606   C.3       1 1      0.0000
    18 H14B     3.5973   2.1367  -0.7692   H         1 1      0.0000
    19 H14A     5.0119   1.0958  -0.5496   H         1 1      0.0000
    20 N        3.6408  -1.0999  -0.3881   N.pl3     1 1      0.0000
    21 HN       2.9716  -1.8695  -0.3958   H         1 1      0.0000
    22 C        5.0491  -1.4632  -0.3270   C.3       1 1      0.0000
    23 H1A      5.1796  -2.4179   0.1782   H         1 1      0.0000
    24 H1C      5.4686  -1.5492  -1.3273   H         1 1      0.0000
    25 H1B      5.6191  -0.7119   0.2154   H         1 1      0.0000
    26 H10A    -1.1225  -1.6676  -0.8188   H         1 1      0.0000
    27 H10B    -0.7738  -0.0860  -1.5395   H         1 1      0.0000
    28 H9B     -1.1601  -0.6335   1.4346   H         1 1      0.0000
    29 H5      -6.5666   0.7929  -0.2147   H         1 1      0.0000
    30 H3      -3.0814   1.1472   2.2272   H         1 1      0.0000
    31 H12B     1.4138   0.9919  -1.1951   H         1 1      0.0000
    32 C15      4.1382   1.8031   1.2736   C.3       1 1      0.0000
    33 H15A     4.5508   0.9938   1.8886   H         1 1      0.0000
    34 H15C     3.1407   2.0429   1.6620   H         1 1      0.0000
    35 OH       1.0783  -1.7643   0.6782   O.3       1 1      0.0000
    36 OH1      0.5884  -2.6182   0.5849   H         1 1      0.0000
    37 H22      1.2317  -1.5092  -1.3699   H         1 1      0.0000
    38 C16      5.0246   3.0207   1.3977   C.3       1 1      0.0000
    39 H16C     4.6270   3.8483   0.8139   H         1 1      0.0000
    40 H16A     5.0966   3.3413   2.4349   H         1 1      0.0000
    41 H16B     6.0289   2.8048   1.0393   H         1 1      0.0000
@<TRIPOS>BOND
     1     1     2   ar
     2     1     6   ar
     3     1    29    1
     4     2     3   ar
     5     2     7    1
     6     3     4   ar
     7     3    30    1
     8     4     5   ar
     9     4     8    1
    10     5     6   ar
    11     5     9    1
    12     6    10    1
    13     8    11    1
    14     8    12    1
    15     8    28    1
    16    11    13    1
    17    11    26    1
    18    11    27    1
    19    13    14    1
    20    14    15    1
    21    14    16    1
    22    14    31    1
    23    16    17    1
    24    16    20    2
    25    17    18    1
    26    17    19    1
    27    17    32    1
    28    20    21    1
    29    20    22    1
    30    22    23    1
    31    22    24    1
    32    22    25    1
    33    32    33    1
    34    32    34    1
    35    13    35    1
    36    35    36    1
    37    13    37    1
    38    32    38    1
    39    38    39    1
    40    38    40    1
    41    38    41    1
@<TRIPOS>SUBSTRUCTURE
     1 1           1 GROUP             0 ****  ****    0  
@<TRIPOS>MOLECULE
Molecule Name_00001_00050
    41    41     1     0     0
SMALL
NO_CHARGES
****
Generated from the CSD

@<TRIPOS>ATOM
     1 C5      -5.5076   0.7485  -0.0791   C.ar      1 1      0.0000
     2 C4      -5.0204   0.6199   1.2037   C.ar      1 1      0.0000
     3 C3      -3.6907   0.2944   1.4134   C.ar      1 1      0.0000
     4 C8      -2.8314   0.0942   0.3440   C.ar      1 1      0.0000
     5 C7      -3.3354   0.2256  -0.9408   C.ar      1 1      0.0000
     6 C6      -4.6649   0.5511  -1.1516   C.ar      1 1      0.0000
     7 H4      -5.6801   0.7740   2.0512   H         1 1      0.0000
     8 C9      -1.3828  -0.2638   0.5730   C.3       1 1      0.0000
     9 H7      -2.6801   0.0716  -1.7918   H         1 1      0.0000
    10 H6      -5.0439   0.6509  -2.1633   H         1 1      0.0000
    11 C10     -0.5967  -0.4433  -0.7243   C.3       1 1      0.0000
    12 H9A     -0.9109   0.5264   1.1699   H         1 1      0.0000
    13 C11      0.8697  -0.8051  -0.5519   C.3       1 1      0.0000
    14 C12      1.6453   0.2924   0.1683   C.3       1 1      0.0000
    15 H12A     1.2493   0.4028   1.1854   H         1 1      0.0000
    16 C13      3.1155   0.0128   0.2446   C.2       1 1      0.0000
    17 C14      3.9757   1.0193   0.9480   C.3       1 1      0.0000
    18 H14B     4.8830   0.5178   1.3066   H         1 1      0.0000
    19 H14A     3.4400   1.4016   1.8255   H         1 1      0.0000
    20 N        3.6208  -1.0883  -0.2749   N.pl3     1 1      0.0000
    21 HN       2.9530  -1.7603  -0.6527   H         1 1      0.0000
    22 C        5.0153  -1.5046  -0.2432   C.3       1 1      0.0000
    23 H1A      5.1057  -2.5669  -0.4604   H         1 1      0.0000
    24 H1C      5.5976  -0.9572  -0.9815   H         1 1      0.0000
    25 H1B      5.4517  -1.3205   0.7361   H         1 1      0.0000
    26 H10A    -1.0799  -1.2318  -1.3143   H         1 1      0.0000
    27 H10B    -0.6577   0.4898  -1.2979   H         1 1      0.0000
    28 H9B     -1.3333  -1.1942   1.1521   H         1 1      0.0000
    29 H5      -6.5492   1.0038  -0.2438   H         1 1      0.0000
    30 H3      -3.3169   0.1949   2.4271   H         1 1      0.0000
    31 H12B     1.4894   1.2435  -0.3555   H         1 1      0.0000
    32 C15      4.3793   2.1882   0.0685   C.3       1 1      0.0000
    33 H15A     3.4761   2.6933  -0.2954   H         1 1      0.0000
    34 H15C     4.9255   1.8099  -0.8045   H         1 1      0.0000
    35 OH       0.9646  -2.0173   0.2013   O.3       1 1      0.0000
    36 OH1      0.4833  -2.7395  -0.2729   H         1 1      0.0000
    37 H22      1.3172  -0.9644  -1.5452   H         1 1      0.0000
    38 C16      5.2450   3.1874   0.8004   C.3       1 1      0.0000
    39 H16C     6.1604   2.7181   1.1546   H         1 1      0.0000
    40 H16A     5.5183   4.0129   0.1465   H         1 1      0.0000
    41 H16B     4.7190   3.5963   1.6606   H         1 1      0.0000
@<TRIPOS>BOND
     1     1     2   ar
     2     1     6   ar
     3     1    29    1
     4     2     3   ar
     5     2     7    1
     6     3     4   ar
     7     3    30    1
     8     4     5   ar
     9     4     8    1
    10     5     6   ar
    11     5     9    1
    12     6    10    1
    13     8    11    1
    14     8    12    1
    15     8    28    1
    16    11    13    1
    17    11    26    1
    18    11    27    1
    19    13    14    1
    20    14    15    1
    21    14    16    1
    22    14    31    1
    23    16    17    1
    24    16    20    2
    25    17    18    1
    26    17    19    1
    27    17    32    1
    28    20    21    1
    29    20    22    1
    30    22    23    1
    31    22    24    1
    32    22    25    1
    33    32    33    1
    34    32    34    1
    35    13    35    1
    36    35    36    1
    37    13    37    1
    38    32    38    1
    39    38    39    1
    40    38    40    1
    41    38    41    1
@<TRIPOS>SUBSTRUCTURE
     1 1           1 GROUP             0 ****  ****    0  
@<TRIPOS>MOLECULE
Molecule Name_00001_00051
    41    41     1     0     0
SMALL
NO_CHARGES
****
Generated from the CSD

@<TRIPOS>ATOM
     1 C5      -4.4377  -0.8151   0.4274   C.ar      1 1      0.0000
     2 C4      -3.5184  -1.4449  -0.3835   C.ar      1 1      0.0000
     3 C3      -2.2017  -1.0161  -0.4060   C.ar      1 1      0.0000
     4 C8      -1.7874   0.0466   0.3821   C.ar      1 1      0.0000
     5 C7      -2.7231   0.6715   1.1920   C.ar      1 1      0.0000
     6 C6      -4.0400   0.2434   1.2152   C.ar      1 1      0.0000
     7 H4      -3.8268  -2.2785  -1.0058   H         1 1      0.0000
     8 C9      -0.3528   0.5158   0.3549   C.3       1 1      0.0000
     9 H7      -2.4200   1.5061   1.8155   H         1 1      0.0000
    10 H6      -4.7603   0.7426   1.8550   H         1 1      0.0000
    11 C10     -0.0775   1.5413  -0.7431   C.3       1 1      0.0000
    12 H9A     -0.1046   0.9588   1.3273   H         1 1      0.0000
    13 C11      1.3412   2.0859  -0.7842   C.3       1 1      0.0000
    14 C12      2.3061   1.1096  -1.4479   C.3       1 1      0.0000
    15 H12A     3.2631   1.6159  -1.6248   H         1 1      0.0000
    16 C13      2.5486  -0.1195  -0.6258   C.2       1 1      0.0000
    17 C14      3.3450   0.0373   0.6347   C.3       1 1      0.0000
    18 H14B     4.0552   0.8628   0.5021   H         1 1      0.0000
    19 H14A     3.9275  -0.8755   0.8098   H         1 1      0.0000
    20 N        2.0605  -1.2864  -0.9965   N.pl3     1 1      0.0000
    21 HN       1.4544  -1.2854  -1.8167   H         1 1      0.0000
    22 C        2.1857  -2.5484  -0.2818   C.3       1 1      0.0000
    23 H1A      1.2884  -3.1514  -0.4041   H         1 1      0.0000
    24 H1C      3.0320  -3.1207  -0.6557   H         1 1      0.0000
    25 H1B      2.3365  -2.3770   0.7819   H         1 1      0.0000
    26 H10A    -0.2971   1.0766  -1.7123   H         1 1      0.0000
    27 H10B    -0.7677   2.3836  -0.6111   H         1 1      0.0000
    28 H9B      0.3026  -0.3512   0.2061   H         1 1      0.0000
    29 H5      -5.4693  -1.1510   0.4454   H         1 1      0.0000
    30 H3      -1.4857  -1.5180  -1.0482   H         1 1      0.0000
    31 H12B     1.9004   0.8128  -2.4230   H         1 1      0.0000
    32 C15      2.4912   0.3196   1.8571   C.3       1 1      0.0000
    33 H15A     1.7672  -0.4943   1.9860   H         1 1      0.0000
    34 H15C     1.9271   1.2465   1.6957   H         1 1      0.0000
    35 OH       1.3461   3.3172  -1.5119   O.3       1 1      0.0000
    36 OH1      0.7399   3.9633  -1.0724   H         1 1      0.0000
    37 H22      1.6802   2.2770   0.2458   H         1 1      0.0000
    38 C16      3.3155   0.4536   3.1166   C.3       1 1      0.0000
    39 H16C     4.0293   1.2696   3.0254   H         1 1      0.0000
    40 H16A     2.6781   0.6553   3.9750   H         1 1      0.0000
    41 H16B     3.8701  -0.4614   3.3137   H         1 1      0.0000
@<TRIPOS>BOND
     1     1     2   ar
     2     1     6   ar
     3     1    29    1
     4     2     3   ar
     5     2     7    1
     6     3     4   ar
     7     3    30    1
     8     4     5   ar
     9     4     8    1
    10     5     6   ar
    11     5     9    1
    12     6    10    1
    13     8    11    1
    14     8    12    1
    15     8    28    1
    16    11    13    1
    17    11    26    1
    18    11    27    1
    19    13    14    1
    20    14    15    1
    21    14    16    1
    22    14    31    1
    23    16    17    1
    24    16    20    2
    25    17    18    1
    26    17    19    1
    27    17    32    1
    28    20    21    1
    29    20    22    1
    30    22    23    1
    31    22    24    1
    32    22    25    1
    33    32    33    1
    34    32    34    1
    35    13    35    1
    36    35    36    1
    37    13    37    1
    38    32    38    1
    39    38    39    1
    40    38    40    1
    41    38    41    1
@<TRIPOS>SUBSTRUCTURE
     1 1           1 GROUP             0 ****  ****    0  
@<TRIPOS>MOLECULE
Molecule Name_00001_00052
    41    41     1     0     0
SMALL
NO_CHARGES
****
Generated from the CSD

@<TRIPOS>ATOM
     1 C5      -4.7428  -0.9566  -0.0144   C.ar      1 1      0.0000
     2 C4      -3.7584  -1.3804  -0.8808   C.ar      1 1      0.0000
     3 C3      -2.4543  -0.9430  -0.7195   C.ar      1 1      0.0000
     4 C8      -2.1177  -0.0775   0.3100   C.ar      1 1      0.0000
     5 C7      -3.1183   0.3416   1.1732   C.ar      1 1      0.0000
     6 C6      -4.4227  -0.0952   1.0128   C.ar      1 1      0.0000
     7 H4      -4.0056  -2.0582  -1.6911   H         1 1      0.0000
     8 C9      -0.6967   0.4015   0.4835   C.3       1 1      0.0000
     9 H7      -2.8765   1.0201   1.9846   H         1 1      0.0000
    10 H6      -5.1944   0.2415   1.6972   H         1 1      0.0000
    11 C10     -0.3789   1.6482  -0.3398   C.3       1 1      0.0000
    12 H9A     -0.5217   0.6201   1.5442   H         1 1      0.0000
    13 C11      1.0249   2.2044  -0.1633   C.3       1 1      0.0000
    14 C12      2.0609   1.3853  -0.9251   C.3       1 1      0.0000
    15 H12A     2.9938   1.9588  -0.9906   H         1 1      0.0000
    16 C13      2.3454   0.0622  -0.2817   C.2       1 1      0.0000
    17 C14      3.0673   0.0728   1.0323   C.3       1 1      0.0000
    18 H14B     2.8269  -0.8506   1.5736   H         1 1      0.0000
    19 H14A     2.7059   0.9141   1.6361   H         1 1      0.0000
    20 N        1.9555  -1.0618  -0.8492   N.pl3     1 1      0.0000
    21 HN       1.3913  -0.9723  -1.6940   H         1 1      0.0000
    22 C        2.1305  -2.4079  -0.3234   C.3       1 1      0.0000
    23 H1A      1.4461  -3.1024  -0.8062   H         1 1      0.0000
    24 H1C      3.1459  -2.7593  -0.4942   H         1 1      0.0000
    25 H1B      1.9394  -2.4328   0.7472   H         1 1      0.0000
    26 H10A    -0.5243   1.4078  -1.4002   H         1 1      0.0000
    27 H10B    -1.0979   2.4324  -0.0721   H         1 1      0.0000
    28 H9B     -0.0113  -0.4036   0.1912   H         1 1      0.0000
    29 H5      -5.7646  -1.2992  -0.1403   H         1 1      0.0000
    30 H3      -1.6866  -1.2820  -1.4072   H         1 1      0.0000
    31 H12B     1.7013   1.2152  -1.9475   H         1 1      0.0000
    32 C15      4.5747   0.1779   0.8920   C.3       1 1      0.0000
    33 H15A     4.8222   1.0987   0.3495   H         1 1      0.0000
    34 H15C     4.9408  -0.6687   0.2982   H         1 1      0.0000
    35 OH       1.0538   3.5537  -0.6369   O.3       1 1      0.0000
    36 OH1      0.4004   4.0959  -0.1299   H         1 1      0.0000
    37 H22      1.2806   2.1949   0.9076   H         1 1      0.0000
    38 C16      5.2781   0.1866   2.2295   C.3       1 1      0.0000
    39 H16C     5.0677  -0.7268   2.7819   H         1 1      0.0000
    40 H16A     6.3554   0.2628   2.0982   H         1 1      0.0000
    41 H16B     4.9496   1.0306   2.8325   H         1 1      0.0000
@<TRIPOS>BOND
     1     1     2   ar
     2     1     6   ar
     3     1    29    1
     4     2     3   ar
     5     2     7    1
     6     3     4   ar
     7     3    30    1
     8     4     5   ar
     9     4     8    1
    10     5     6   ar
    11     5     9    1
    12     6    10    1
    13     8    11    1
    14     8    12    1
    15     8    28    1
    16    11    13    1
    17    11    26    1
    18    11    27    1
    19    13    14    1
    20    14    15    1
    21    14    16    1
    22    14    31    1
    23    16    17    1
    24    16    20    2
    25    17    18    1
    26    17    19    1
    27    17    32    1
    28    20    21    1
    29    20    22    1
    30    22    23    1
    31    22    24    1
    32    22    25    1
    33    32    33    1
    34    32    34    1
    35    13    35    1
    36    35    36    1
    37    13    37    1
    38    32    38    1
    39    38    39    1
    40    38    40    1
    41    38    41    1
@<TRIPOS>SUBSTRUCTURE
     1 1           1 GROUP             0 ****  ****    0  
@<TRIPOS>MOLECULE
Molecule Name_00001_00053
    41    41     1     0     0
SMALL
NO_CHARGES
****
Generated from the CSD

@<TRIPOS>ATOM
     1 C5      -5.6241   0.7269  -0.1223   C.ar      1 1      0.0000
     2 C4      -5.2404  -0.4029  -0.8120   C.ar      1 1      0.0000
     3 C3      -3.9568  -0.9027  -0.6690   C.ar      1 1      0.0000
     4 C8      -3.0411  -0.2803   0.1654   C.ar      1 1      0.0000
     5 C7      -3.4404   0.8560   0.8521   C.ar      1 1      0.0000
     6 C6      -4.7239   1.3566   0.7098   C.ar      1 1      0.0000
     7 H4      -5.9455  -0.9019  -1.4685   H         1 1      0.0000
     8 C9      -1.6410  -0.8235   0.3185   C.3       1 1      0.0000
     9 H7      -2.7388   1.3594   1.5090   H         1 1      0.0000
    10 H6      -5.0212   2.2466   1.2545   H         1 1      0.0000
    11 C10     -0.5648   0.1464  -0.1654   C.3       1 1      0.0000
    12 H9A     -1.4629  -1.0558   1.3757   H         1 1      0.0000
    13 C11      0.8659  -0.3507  -0.0341   C.3       1 1      0.0000
    14 C12      1.8722   0.6689  -0.5562   C.3       1 1      0.0000
    15 H12A     1.7769   1.5956   0.0229   H         1 1      0.0000
    16 C13      3.2880   0.1850  -0.4736   C.2       1 1      0.0000
    17 C14      4.3526   1.2043  -0.1989   C.3       1 1      0.0000
    18 H14B     4.1202   2.1167  -0.7619   H         1 1      0.0000
    19 H14A     5.3161   0.8272  -0.5630   H         1 1      0.0000
    20 N        3.5739  -1.0933  -0.6205   N.pl3     1 1      0.0000
    21 HN       2.7812  -1.7284  -0.7123   H         1 1      0.0000
    22 C        4.8912  -1.7061  -0.5296   C.3       1 1      0.0000
    23 H1A      4.8248  -2.6999  -0.0917   H         1 1      0.0000
    24 H1C      5.3414  -1.7998  -1.5156   H         1 1      0.0000
    25 H1B      5.5547  -1.1064   0.0897   H         1 1      0.0000
    26 H10A    -0.7555   0.3748  -1.2213   H         1 1      0.0000
    27 H10B    -0.6599   1.0803   0.4022   H         1 1      0.0000
    28 H9B     -1.5584  -1.7596  -0.2474   H         1 1      0.0000
    29 H5      -6.6298   1.1186  -0.2338   H         1 1      0.0000
    30 H3      -3.6641  -1.7924  -1.2167   H         1 1      0.0000
    31 H12B     1.6352   0.9027  -1.6015   H         1 1      0.0000
    32 C15      4.4849   1.5581   1.2708   C.3       1 1      0.0000
    33 H15A     4.7155   0.6493   1.8403   H         1 1      0.0000
    34 H15C     3.5258   1.9465   1.6351   H         1 1      0.0000
    35 OH       1.1413  -0.6175   1.3438   O.3       1 1      0.0000
    36 OH1      0.5096  -1.2996   1.6810   H         1 1      0.0000
    37 H22      0.9737  -1.2839  -0.6084   H         1 1      0.0000
    38 C16      5.5636   2.5864   1.5206   C.3       1 1      0.0000
    39 H16C     5.3492   3.5084   0.9842   H         1 1      0.0000
    40 H16A     5.6357   2.8201   2.5808   H         1 1      0.0000
    41 H16B     6.5319   2.2182   1.1882   H         1 1      0.0000
@<TRIPOS>BOND
     1     1     2   ar
     2     1     6   ar
     3     1    29    1
     4     2     3   ar
     5     2     7    1
     6     3     4   ar
     7     3    30    1
     8     4     5   ar
     9     4     8    1
    10     5     6   ar
    11     5     9    1
    12     6    10    1
    13     8    11    1
    14     8    12    1
    15     8    28    1
    16    11    13    1
    17    11    26    1
    18    11    27    1
    19    13    14    1
    20    14    15    1
    21    14    16    1
    22    14    31    1
    23    16    17    1
    24    16    20    2
    25    17    18    1
    26    17    19    1
    27    17    32    1
    28    20    21    1
    29    20    22    1
    30    22    23    1
    31    22    24    1
    32    22    25    1
    33    32    33    1
    34    32    34    1
    35    13    35    1
    36    35    36    1
    37    13    37    1
    38    32    38    1
    39    38    39    1
    40    38    40    1
    41    38    41    1
@<TRIPOS>SUBSTRUCTURE
     1 1           1 GROUP             0 ****  ****    0  
@<TRIPOS>MOLECULE
Molecule Name_00001_00054
    41    41     1     0     0
SMALL
NO_CHARGES
****
Generated from the CSD

@<TRIPOS>ATOM
     1 C5      -5.6450   0.8308  -0.0858   C.ar      1 1      0.0000
     2 C4      -5.2063   0.0325  -1.1199   C.ar      1 1      0.0000
     3 C3      -3.9423  -0.5317  -1.0751   C.ar      1 1      0.0000
     4 C8      -3.1016  -0.3057   0.0039   C.ar      1 1      0.0000
     5 C7      -3.5556   0.5004   1.0365   C.ar      1 1      0.0000
     6 C6      -4.8194   1.0650   0.9926   C.ar      1 1      0.0000
     7 H4      -5.8525  -0.1545  -1.9712   H         1 1      0.0000
     8 C9      -1.7226  -0.9182   0.0509   C.3       1 1      0.0000
     9 H7      -2.9128   0.6913   1.8895   H         1 1      0.0000
    10 H6      -5.1603   1.6931   1.8090   H         1 1      0.0000
    11 C10     -0.6040   0.1218   0.0602   C.3       1 1      0.0000
    12 H9A     -1.6396  -1.5396   0.9511   H         1 1      0.0000
    13 C11      0.8075  -0.4408   0.1070   C.3       1 1      0.0000
    14 C12      1.8600   0.6622   0.0942   C.3       1 1      0.0000
    15 H12A     1.7175   1.3039   0.9725   H         1 1      0.0000
    16 C13      3.2611   0.1307   0.1001   C.2       1 1      0.0000
    17 C14      4.3013   0.9300   0.8260   C.3       1 1      0.0000
    18 H14B     5.1174   0.2594   1.1222   H         1 1      0.0000
    19 H14A     3.8638   1.3440   1.7427   H         1 1      0.0000
    20 N        3.5538  -1.0068  -0.4981   N.pl3     1 1      0.0000
    21 HN       2.7698  -1.5300  -0.8877   H         1 1      0.0000
    22 C        4.8554  -1.6570  -0.5415   C.3       1 1      0.0000
    23 H1A      4.7553  -2.7016  -0.8287   H         1 1      0.0000
    24 H1C      5.5064  -1.1682  -1.2633   H         1 1      0.0000
    25 H1B      5.3398  -1.6180   0.4319   H         1 1      0.0000
    26 H10A    -0.6997   0.7396  -0.8413   H         1 1      0.0000
    27 H10B    -0.7453   0.7745   0.9305   H         1 1      0.0000
    28 H9B     -1.5940  -1.5730  -0.8197   H         1 1      0.0000
    29 H5      -6.6353   1.2728  -0.1204   H         1 1      0.0000
    30 H3      -3.6058  -1.1583  -1.8945   H         1 1      0.0000
    31 H12B     1.7172   1.2827  -0.7991   H         1 1      0.0000
    32 C15      4.8774   2.0640  -0.0015   C.3       1 1      0.0000
    33 H15A     4.0659   2.7378  -0.3029   H         1 1      0.0000
    34 H15C     5.3260   1.6519  -0.9138   H         1 1      0.0000
    35 OH       0.9589  -1.2191   1.2975   O.3       1 1      0.0000
    36 OH1      0.2968  -1.9537   1.2985   H         1 1      0.0000
    37 H22      0.9620  -1.0908  -0.7681   H         1 1      0.0000
    38 C16      5.9225   2.8535   0.7522   C.3       1 1      0.0000
    39 H16C     6.7521   2.2135   1.0456   H         1 1      0.0000
    40 H16A     6.3170   3.6583   0.1355   H         1 1      0.0000
    41 H16B     5.4987   3.2930   1.6528   H         1 1      0.0000
@<TRIPOS>BOND
     1     1     2   ar
     2     1     6   ar
     3     1    29    1
     4     2     3   ar
     5     2     7    1
     6     3     4   ar
     7     3    30    1
     8     4     5   ar
     9     4     8    1
    10     5     6   ar
    11     5     9    1
    12     6    10    1
    13     8    11    1
    14     8    12    1
    15     8    28    1
    16    11    13    1
    17    11    26    1
    18    11    27    1
    19    13    14    1
    20    14    15    1
    21    14    16    1
    22    14    31    1
    23    16    17    1
    24    16    20    2
    25    17    18    1
    26    17    19    1
    27    17    32    1
    28    20    21    1
    29    20    22    1
    30    22    23    1
    31    22    24    1
    32    22    25    1
    33    32    33    1
    34    32    34    1
    35    13    35    1
    36    35    36    1
    37    13    37    1
    38    32    38    1
    39    38    39    1
    40    38    40    1
    41    38    41    1
@<TRIPOS>SUBSTRUCTURE
     1 1           1 GROUP             0 ****  ****    0  
@<TRIPOS>MOLECULE
Molecule Name_00001_00055
    41    41     1     0     0
SMALL
NO_CHARGES
****
Generated from the CSD

@<TRIPOS>ATOM
     1 C5      -5.6021   0.7638  -0.0615   C.ar      1 1      0.0000
     2 C4      -5.1424  -0.2581  -0.8640   C.ar      1 1      0.0000
     3 C3      -3.8503  -0.7332  -0.7133   C.ar      1 1      0.0000
     4 C8      -3.0020  -0.1938   0.2413   C.ar      1 1      0.0000
     5 C7      -3.4773   0.8344   1.0407   C.ar      1 1      0.0000
     6 C6      -4.7692   1.3103   0.8909   C.ar      1 1      0.0000
     7 H4      -5.7943  -0.6913  -1.6154   H         1 1      0.0000
     8 C9      -1.5926  -0.7098   0.4030   C.3       1 1      0.0000
     9 H7      -2.8291   1.2717   1.7929   H         1 1      0.0000
    10 H6      -5.1265   2.1152   1.5247   H         1 1      0.0000
    11 C10     -0.5913  -0.0204  -0.5218   C.3       1 1      0.0000
    12 H9A     -1.2770  -0.5634   1.4434   H         1 1      0.0000
    13 C11      0.8454  -0.5022  -0.4005   C.3       1 1      0.0000
    14 C12      1.8264   0.6589  -0.2815   C.3       1 1      0.0000
    15 H12A     1.6220   1.2073   0.6464   H         1 1      0.0000
    16 C13      3.2576   0.2147  -0.2809   C.2       1 1      0.0000
    17 C14      4.3107   1.2739  -0.1513   C.3       1 1      0.0000
    18 H14B     4.0101   2.1442  -0.7476   H         1 1      0.0000
    19 H14A     5.2539   0.8980  -0.5663   H         1 1      0.0000
    20 N        3.5675  -1.0631  -0.3733   N.pl3     1 1      0.0000
    21 HN       2.7884  -1.7212  -0.3651   H         1 1      0.0000
    22 C        4.9048  -1.6378  -0.3492   C.3       1 1      0.0000
    23 H1A      4.9003  -2.6040   0.1509   H         1 1      0.0000
    24 H1C      5.2808  -1.7813  -1.3600   H         1 1      0.0000
    25 H1B      5.5964  -0.9855   0.1797   H         1 1      0.0000
    26 H10A    -0.9192  -0.1694  -1.5580   H         1 1      0.0000
    27 H10B    -0.6136   1.0567  -0.3147   H         1 1      0.0000
    28 H9B     -1.5826  -1.7878   0.1997   H         1 1      0.0000
    29 H5      -6.6144   1.1361  -0.1790   H         1 1      0.0000
    30 H3      -3.4976  -1.5376  -1.3503   H         1 1      0.0000
    31 H12B     1.6671   1.3492  -1.1191   H         1 1      0.0000
    32 C15      4.5449   1.7204   1.2800   C.3       1 1      0.0000
    33 H15A     4.8441   0.8540   1.8828   H         1 1      0.0000
    34 H15C     3.6059   2.1077   1.6943   H         1 1      0.0000
    35 OH       0.9612  -1.3339   0.7574   O.3       1 1      0.0000
    36 OH1      0.5174  -2.2011   0.5871   H         1 1      0.0000
    37 H22      1.1002  -1.0937  -1.2935   H         1 1      0.0000
    38 C16      5.6100   2.7874   1.3833   C.3       1 1      0.0000
    39 H16C     5.3291   3.6693   0.8114   H         1 1      0.0000
    40 H16A     5.7562   3.0874   2.4188   H         1 1      0.0000
    41 H16B     6.5601   2.4225   0.9987   H         1 1      0.0000
@<TRIPOS>BOND
     1     1     2   ar
     2     1     6   ar
     3     1    29    1
     4     2     3   ar
     5     2     7    1
     6     3     4   ar
     7     3    30    1
     8     4     5   ar
     9     4     8    1
    10     5     6   ar
    11     5     9    1
    12     6    10    1
    13     8    11    1
    14     8    12    1
    15     8    28    1
    16    11    13    1
    17    11    26    1
    18    11    27    1
    19    13    14    1
    20    14    15    1
    21    14    16    1
    22    14    31    1
    23    16    17    1
    24    16    20    2
    25    17    18    1
    26    17    19    1
    27    17    32    1
    28    20    21    1
    29    20    22    1
    30    22    23    1
    31    22    24    1
    32    22    25    1
    33    32    33    1
    34    32    34    1
    35    13    35    1
    36    35    36    1
    37    13    37    1
    38    32    38    1
    39    38    39    1
    40    38    40    1
    41    38    41    1
@<TRIPOS>SUBSTRUCTURE
     1 1           1 GROUP             0 ****  ****    0  
@<TRIPOS>MOLECULE
Molecule Name_00001_00056
    41    41     1     0     0
SMALL
NO_CHARGES
****
Generated from the CSD

@<TRIPOS>ATOM
     1 C5      -5.6042   0.8470   0.0019   C.ar      1 1      0.0000
     2 C4      -5.0758   0.2143  -1.1026   C.ar      1 1      0.0000
     3 C3      -3.8030  -0.3290  -1.0503   C.ar      1 1      0.0000
     4 C8      -3.0429  -0.2475   0.1063   C.ar      1 1      0.0000
     5 C7      -3.5867   0.3928   1.2092   C.ar      1 1      0.0000
     6 C6      -4.8594   0.9364   1.1580   C.ar      1 1      0.0000
     7 H4      -5.6583   0.1417  -2.0151   H         1 1      0.0000
     8 C9      -1.6543  -0.8370   0.1618   C.3       1 1      0.0000
     9 H7      -3.0080   0.4689   2.1239   H         1 1      0.0000
    10 H6      -5.2710   1.4338   2.0300   H         1 1      0.0000
    11 C10     -0.5734   0.1268  -0.3238   C.3       1 1      0.0000
    12 H9A     -1.4330  -1.1300   1.1955   H         1 1      0.0000
    13 C11      0.8461  -0.4163  -0.2891   C.3       1 1      0.0000
    14 C12      1.8139   0.5634   0.3652   C.3       1 1      0.0000
    15 H12A     1.5279   0.7028   1.4150   H         1 1      0.0000
    16 C13      3.2388   0.1032   0.3043   C.2       1 1      0.0000
    17 C14      4.2773   0.9826   0.9334   C.3       1 1      0.0000
    18 H14B     5.1437   0.3664   1.2037   H         1 1      0.0000
    19 H14A     3.8746   1.4116   1.8591   H         1 1      0.0000
    20 N        3.5541  -1.0419  -0.2673   N.pl3     1 1      0.0000
    21 HN       2.7767  -1.6191  -0.5873   H         1 1      0.0000
    22 C        4.8831  -1.6275  -0.3666   C.3       1 1      0.0000
    23 H1A      4.8203  -2.6923  -0.5812   H         1 1      0.0000
    24 H1C      5.4540  -1.1546  -1.1629   H         1 1      0.0000
    25 H1B      5.4319  -1.5011   0.5642   H         1 1      0.0000
    26 H10A    -0.8073   0.4162  -1.3557   H         1 1      0.0000
    27 H10B    -0.6128   1.0315   0.2953   H         1 1      0.0000
    28 H9B     -1.6275  -1.7437  -0.4552   H         1 1      0.0000
    29 H5      -6.6015   1.2725  -0.0386   H         1 1      0.0000
    30 H3      -3.3956  -0.8245  -1.9254   H         1 1      0.0000
    31 H12B     1.7312   1.5362  -0.1352   H         1 1      0.0000
    32 C15      4.7426   2.1091   0.0293   C.3       1 1      0.0000
    33 H15A     3.8803   2.7285  -0.2465   H         1 1      0.0000
    34 H15C     5.1567   1.6827  -0.8927   H         1 1      0.0000
    35 OH       0.8566  -1.6449   0.4432   O.3       1 1      0.0000
    36 OH1      0.4761  -2.3662  -0.1161   H         1 1      0.0000
    37 H22      1.1791  -0.6109  -1.3204   H         1 1      0.0000
    38 C16      5.7883   2.9800   0.6863   C.3       1 1      0.0000
    39 H16C     6.6663   2.3948   0.9517   H         1 1      0.0000
    40 H16A     6.1024   3.7775   0.0162   H         1 1      0.0000
    41 H16B     5.3969   3.4345   1.5940   H         1 1      0.0000
@<TRIPOS>BOND
     1     1     2   ar
     2     1     6   ar
     3     1    29    1
     4     2     3   ar
     5     2     7    1
     6     3     4   ar
     7     3    30    1
     8     4     5   ar
     9     4     8    1
    10     5     6   ar
    11     5     9    1
    12     6    10    1
    13     8    11    1
    14     8    12    1
    15     8    28    1
    16    11    13    1
    17    11    26    1
    18    11    27    1
    19    13    14    1
    20    14    15    1
    21    14    16    1
    22    14    31    1
    23    16    17    1
    24    16    20    2
    25    17    18    1
    26    17    19    1
    27    17    32    1
    28    20    21    1
    29    20    22    1
    30    22    23    1
    31    22    24    1
    32    22    25    1
    33    32    33    1
    34    32    34    1
    35    13    35    1
    36    35    36    1
    37    13    37    1
    38    32    38    1
    39    38    39    1
    40    38    40    1
    41    38    41    1
@<TRIPOS>SUBSTRUCTURE
     1 1           1 GROUP             0 ****  ****    0  
@<TRIPOS>MOLECULE
Molecule Name_00001_00057
    41    41     1     0     0
SMALL
NO_CHARGES
****
Generated from the CSD

@<TRIPOS>ATOM
     1 C5      -4.7618   0.6957  -1.1874   C.ar      1 1      0.0000
     2 C4      -4.4755  -0.6391  -0.9986   C.ar      1 1      0.0000
     3 C3      -3.4190  -1.0157  -0.1861   C.ar      1 1      0.0000
     4 C8      -2.6363  -0.0633   0.4482   C.ar      1 1      0.0000
     5 C7      -2.9350   1.2757   0.2482   C.ar      1 1      0.0000
     6 C6      -3.9913   1.6533  -0.5640   C.ar      1 1      0.0000
     7 H4      -5.0790  -1.3966  -1.4875   H         1 1      0.0000
     8 C9      -1.4828  -0.4741   1.3311   C.3       1 1      0.0000
     9 H7      -2.3339   2.0372   0.7341   H         1 1      0.0000
    10 H6      -4.2126   2.7054  -0.7100   H         1 1      0.0000
    11 C10     -0.1796  -0.6765   0.5605   C.3       1 1      0.0000
    12 H9A     -1.3287   0.2961   2.0968   H         1 1      0.0000
    13 C11      1.0164  -1.0916   1.4020   C.3       1 1      0.0000
    14 C12      2.2673  -1.2905   0.5532   C.3       1 1      0.0000
    15 H12A     2.1146  -2.1471  -0.1149   H         1 1      0.0000
    16 C13      2.6115  -0.0856  -0.2686   C.2       1 1      0.0000
    17 C14      3.2951   1.0534   0.4263   C.3       1 1      0.0000
    18 H14B     2.8435   1.1832   1.4176   H         1 1      0.0000
    19 H14A     3.1229   1.9772  -0.1394   H         1 1      0.0000
    20 N        2.3353  -0.0462  -1.5568   N.pl3     1 1      0.0000
    21 HN       1.9539  -0.8990  -1.9659   H         1 1      0.0000
    22 C        2.6429   1.0369  -2.4795   C.3       1 1      0.0000
    23 H1A      2.8868   0.6461  -3.4652   H         1 1      0.0000
    24 H1C      1.7932   1.7086  -2.5822   H         1 1      0.0000
    25 H1B      3.4922   1.6172  -2.1253   H         1 1      0.0000
    26 H10A    -0.3468  -1.4447  -0.2046   H         1 1      0.0000
    27 H10B     0.0676   0.2605   0.0463   H         1 1      0.0000
    28 H9B     -1.7426  -1.4080   1.8446   H         1 1      0.0000
    29 H5      -5.5896   0.9911  -1.8237   H         1 1      0.0000
    30 H3      -3.2013  -2.0691  -0.0443   H         1 1      0.0000
    31 H12B     3.1124  -1.5272   1.2114   H         1 1      0.0000
    32 C15      4.7894   0.8489   0.5939   C.3       1 1      0.0000
    33 H15A     5.2474   0.7164  -0.3941   H         1 1      0.0000
    34 H15C     4.9648  -0.0684   1.1694   H         1 1      0.0000
    35 OH       1.2704  -0.0799   2.3807   O.3       1 1      0.0000
    36 OH1      0.4717   0.0345   2.9526   H         1 1      0.0000
    37 H22      0.7807  -2.0363   1.9160   H         1 1      0.0000
    38 C16      5.4542   2.0100   1.2964   C.3       1 1      0.0000
    39 H16C     5.0339   2.1515   2.2899   H         1 1      0.0000
    40 H16A     6.5230   1.8360   1.4022   H         1 1      0.0000
    41 H16B     5.3148   2.9315   0.7350   H         1 1      0.0000
@<TRIPOS>BOND
     1     1     2   ar
     2     1     6   ar
     3     1    29    1
     4     2     3   ar
     5     2     7    1
     6     3     4   ar
     7     3    30    1
     8     4     5   ar
     9     4     8    1
    10     5     6   ar
    11     5     9    1
    12     6    10    1
    13     8    11    1
    14     8    12    1
    15     8    28    1
    16    11    13    1
    17    11    26    1
    18    11    27    1
    19    13    14    1
    20    14    15    1
    21    14    16    1
    22    14    31    1
    23    16    17    1
    24    16    20    2
    25    17    18    1
    26    17    19    1
    27    17    32    1
    28    20    21    1
    29    20    22    1
    30    22    23    1
    31    22    24    1
    32    22    25    1
    33    32    33    1
    34    32    34    1
    35    13    35    1
    36    35    36    1
    37    13    37    1
    38    32    38    1
    39    38    39    1
    40    38    40    1
    41    38    41    1
@<TRIPOS>SUBSTRUCTURE
     1 1           1 GROUP             0 ****  ****    0  
@<TRIPOS>MOLECULE
Molecule Name_00001_00058
    41    41     1     0     0
SMALL
NO_CHARGES
****
Generated from the CSD

@<TRIPOS>ATOM
     1 C5      -4.3533   1.3221   1.2931   C.ar      1 1      0.0000
     2 C4      -4.0377   1.7004   0.0061   C.ar      1 1      0.0000
     3 C3      -3.0954   0.9882  -0.7170   C.ar      1 1      0.0000
     4 C8      -2.4576  -0.1112  -0.1632   C.ar      1 1      0.0000
     5 C7      -2.7840  -0.4796   1.1328   C.ar      1 1      0.0000
     6 C6      -3.7262   0.2319   1.8567   C.ar      1 1      0.0000
     7 H4      -4.5285   2.5582  -0.4417   H         1 1      0.0000
     8 C9      -1.4281  -0.8852  -0.9506   C.3       1 1      0.0000
     9 H7      -2.2954  -1.3361   1.5856   H         1 1      0.0000
    10 H6      -3.9711  -0.0696   2.8698   H         1 1      0.0000
    11 C10     -0.0185  -0.3110  -0.8228   C.3       1 1      0.0000
    12 H9A     -1.4225  -1.9257  -0.6029   H         1 1      0.0000
    13 C11      1.0592  -1.0530  -1.5967   C.3       1 1      0.0000
    14 C12      2.4128  -0.3587  -1.4943   C.3       1 1      0.0000
    15 H12A     2.3480   0.6256  -1.9741   H         1 1      0.0000
    16 C13      2.8716  -0.1825  -0.0787   C.2       1 1      0.0000
    17 C14      2.3916   1.0317   0.6582   C.3       1 1      0.0000
    18 H14B     2.3808   0.8103   1.7325   H         1 1      0.0000
    19 H14A     1.3609   1.2537   0.3556   H         1 1      0.0000
    20 N        3.6532  -1.0765   0.4935   N.pl3     1 1      0.0000
    21 HN       3.8563  -1.9159  -0.0489   H         1 1      0.0000
    22 C        4.1436  -1.0531   1.8639   C.3       1 1      0.0000
    23 H1A      4.5116  -2.0337   2.1586   H         1 1      0.0000
    24 H1C      4.9583  -0.3398   1.9695   H         1 1      0.0000
    25 H1B      3.3519  -0.7670   2.5531   H         1 1      0.0000
    26 H10A    -0.0373   0.7299  -1.1687   H         1 1      0.0000
    27 H10B     0.2586  -0.3067   0.2386   H         1 1      0.0000
    28 H9B     -1.7177  -0.8885  -2.0087   H         1 1      0.0000
    29 H5      -5.0917   1.8796   1.8599   H         1 1      0.0000
    30 H3      -2.8534   1.2944  -1.7294   H         1 1      0.0000
    31 H12B     3.1594  -0.9479  -2.0410   H         1 1      0.0000
    32 C15      3.2506   2.2601   0.4217   C.3       1 1      0.0000
    33 H15A     3.2673   2.4862  -0.6516   H         1 1      0.0000
    34 H15C     4.2799   2.0451   0.7342   H         1 1      0.0000
    35 OH       1.1735  -2.3811  -1.0782   O.3       1 1      0.0000
    36 OH1      0.3044  -2.8452  -1.1638   H         1 1      0.0000
    37 H22      0.7653  -1.1061  -2.6564   H         1 1      0.0000
    38 C16      2.7459   3.4692   1.1748   C.3       1 1      0.0000
    39 H16C     2.7391   3.2809   2.2464   H         1 1      0.0000
    40 H16A     3.3799   4.3331   0.9866   H         1 1      0.0000
    41 H16B     1.7324   3.7192   0.8682   H         1 1      0.0000
@<TRIPOS>BOND
     1     1     2   ar
     2     1     6   ar
     3     1    29    1
     4     2     3   ar
     5     2     7    1
     6     3     4   ar
     7     3    30    1
     8     4     5   ar
     9     4     8    1
    10     5     6   ar
    11     5     9    1
    12     6    10    1
    13     8    11    1
    14     8    12    1
    15     8    28    1
    16    11    13    1
    17    11    26    1
    18    11    27    1
    19    13    14    1
    20    14    15    1
    21    14    16    1
    22    14    31    1
    23    16    17    1
    24    16    20    2
    25    17    18    1
    26    17    19    1
    27    17    32    1
    28    20    21    1
    29    20    22    1
    30    22    23    1
    31    22    24    1
    32    22    25    1
    33    32    33    1
    34    32    34    1
    35    13    35    1
    36    35    36    1
    37    13    37    1
    38    32    38    1
    39    38    39    1
    40    38    40    1
    41    38    41    1
@<TRIPOS>SUBSTRUCTURE
     1 1           1 GROUP             0 ****  ****    0  
@<TRIPOS>MOLECULE
Molecule Name_00001_00059
    41    41     1     0     0
SMALL
NO_CHARGES
****
Generated from the CSD

@<TRIPOS>ATOM
     1 C5      -5.6398   0.8043  -0.1334   C.ar      1 1      0.0000
     2 C4      -4.6586   1.1995  -1.0168   C.ar      1 1      0.0000
     3 C3      -3.3884   0.6537  -0.9353   C.ar      1 1      0.0000
     4 C8      -3.0833  -0.2943   0.0292   C.ar      1 1      0.0000
     5 C7      -4.0797  -0.6816   0.9120   C.ar      1 1      0.0000
     6 C6      -5.3502  -0.1364   0.8314   C.ar      1 1      0.0000
     7 H4      -4.8818   1.9400  -1.7777   H         1 1      0.0000
     8 C9      -1.6977  -0.8866   0.1197   C.3       1 1      0.0000
     9 H7      -3.8615  -1.4210   1.6754   H         1 1      0.0000
    10 H6      -6.1193  -0.4504   1.5293   H         1 1      0.0000
    11 C10     -0.6062   0.1655   0.3057   C.3       1 1      0.0000
    12 H9A     -1.6648  -1.5880   0.9626   H         1 1      0.0000
    13 C11      0.8106  -0.3767   0.4031   C.3       1 1      0.0000
    14 C12      1.8352   0.6067  -0.1520   C.3       1 1      0.0000
    15 H12A     1.8270   1.5168   0.4605   H         1 1      0.0000
    16 C13      3.2252   0.0476  -0.1771   C.2       1 1      0.0000
    17 C14      4.3191   0.9359  -0.6891   C.3       1 1      0.0000
    18 H14B     3.9415   1.4976  -1.5524   H         1 1      0.0000
    19 H14A     5.1545   0.3161  -1.0371   H         1 1      0.0000
    20 N        3.4691  -1.1740   0.2537   N.pl3     1 1      0.0000
    21 HN       2.6836  -1.6742   0.6696   H         1 1      0.0000
    22 C        4.7669  -1.8297   0.3211   C.3       1 1      0.0000
    23 H1A      4.8237  -2.4843   1.1883   H         1 1      0.0000
    24 H1C      4.9417  -2.4307  -0.5689   H         1 1      0.0000
    25 H1B      5.5671  -1.0966   0.3968   H         1 1      0.0000
    26 H10A    -0.6517   0.8631  -0.5397   H         1 1      0.0000
    27 H10B    -0.8235   0.7319   1.2198   H         1 1      0.0000
    28 H9B     -1.4931  -1.4553  -0.7958   H         1 1      0.0000
    29 H5      -6.6351   1.2315  -0.1970   H         1 1      0.0000
    30 H3      -2.6227   0.9719  -1.6350   H         1 1      0.0000
    31 H12B     1.5450   0.8883  -1.1718   H         1 1      0.0000
    32 C15      4.8324   1.9194   0.3463   C.3       1 1      0.0000
    33 H15A     5.2100   1.3641   1.2138   H         1 1      0.0000
    34 H15C     4.0014   2.5487   0.6880   H         1 1      0.0000
    35 OH       1.1134  -0.6440   1.7752   O.3       1 1      0.0000
    36 OH1      0.4664  -1.2999   2.1346   H         1 1      0.0000
    37 H22      0.8733  -1.3162  -0.1674   H         1 1      0.0000
    38 C16      5.9334   2.8022  -0.1943   C.3       1 1      0.0000
    39 H16C     5.5802   3.3825  -1.0441   H         1 1      0.0000
    40 H16A     6.2813   3.4957   0.5685   H         1 1      0.0000
    41 H16B     6.7817   2.2044  -0.5211   H         1 1      0.0000
@<TRIPOS>BOND
     1     1     2   ar
     2     1     6   ar
     3     1    29    1
     4     2     3   ar
     5     2     7    1
     6     3     4   ar
     7     3    30    1
     8     4     5   ar
     9     4     8    1
    10     5     6   ar
    11     5     9    1
    12     6    10    1
    13     8    11    1
    14     8    12    1
    15     8    28    1
    16    11    13    1
    17    11    26    1
    18    11    27    1
    19    13    14    1
    20    14    15    1
    21    14    16    1
    22    14    31    1
    23    16    17    1
    24    16    20    2
    25    17    18    1
    26    17    19    1
    27    17    32    1
    28    20    21    1
    29    20    22    1
    30    22    23    1
    31    22    24    1
    32    22    25    1
    33    32    33    1
    34    32    34    1
    35    13    35    1
    36    35    36    1
    37    13    37    1
    38    32    38    1
    39    38    39    1
    40    38    40    1
    41    38    41    1
@<TRIPOS>SUBSTRUCTURE
     1 1           1 GROUP             0 ****  ****    0  
@<TRIPOS>MOLECULE
Molecule Name_00001_00060
    41    41     1     0     0
SMALL
NO_CHARGES
****
Generated from the CSD

@<TRIPOS>ATOM
     1 C5      -5.6141   0.6112   0.4735   C.ar      1 1      0.0000
     2 C4      -4.5991   1.5199   0.6821   C.ar      1 1      0.0000
     3 C3      -3.3116   1.2338   0.2597   C.ar      1 1      0.0000
     4 C8      -3.0227   0.0366  -0.3771   C.ar      1 1      0.0000
     5 C7      -4.0531  -0.8686  -0.5792   C.ar      1 1      0.0000
     6 C6      -5.3410  -0.5834  -0.1572   C.ar      1 1      0.0000
     7 H4      -4.8092   2.4615   1.1785   H         1 1      0.0000
     8 C9      -1.6185  -0.2762  -0.8345   C.3       1 1      0.0000
     9 H7      -3.8481  -1.8120  -1.0743   H         1 1      0.0000
    10 H6      -6.1367  -1.3021  -0.3234   H         1 1      0.0000
    11 C10     -0.5935  -0.2254   0.2968   C.3       1 1      0.0000
    12 H9A     -1.6051  -1.2770  -1.2836   H         1 1      0.0000
    13 C11      0.8390  -0.5329  -0.1086   C.3       1 1      0.0000
    14 C12      1.8477   0.2156   0.7557   C.3       1 1      0.0000
    15 H12A     1.7564  -0.1291   1.7932   H         1 1      0.0000
    16 C13      3.2621   0.0227   0.2999   C.2       1 1      0.0000
    17 C14      4.3418   0.7008   1.0886   C.3       1 1      0.0000
    18 H14B     5.2815   0.1543   0.9415   H         1 1      0.0000
    19 H14A     4.0941   0.6521   2.1560   H         1 1      0.0000
    20 N        3.5372  -0.7314  -0.7457   N.pl3     1 1      0.0000
    21 HN       2.7522  -1.2279  -1.1668   H         1 1      0.0000
    22 C        4.8585  -1.0348  -1.2758   C.3       1 1      0.0000
    23 H1A      4.8218  -1.9045  -1.9284   H         1 1      0.0000
    24 H1C      5.2449  -0.1959  -1.8509   H         1 1      0.0000
    25 H1B      5.5594  -1.2444  -0.4706   H         1 1      0.0000
    26 H10A    -0.6190   0.7773   0.7408   H         1 1      0.0000
    27 H10B    -0.8956  -0.9424   1.0701   H         1 1      0.0000
    28 H9B     -1.3287   0.4421  -1.6113   H         1 1      0.0000
    29 H5      -6.6230   0.8351   0.8041   H         1 1      0.0000
    30 H3      -2.5194   1.9554   0.4291   H         1 1      0.0000
    31 H12B     1.6096   1.2863   0.7376   H         1 1      0.0000
    32 C15      4.5546   2.1515   0.6974   C.3       1 1      0.0000
    33 H15A     3.6177   2.7038   0.8403   H         1 1      0.0000
    34 H15C     4.8140   2.2028  -0.3673   H         1 1      0.0000
    35 OH       1.0667  -1.9394   0.0174   O.3       1 1      0.0000
    36 OH1      0.4308  -2.4300  -0.5597   H         1 1      0.0000
    37 H22      0.9835  -0.2393  -1.1598   H         1 1      0.0000
    38 C16      5.6472   2.8116   1.5064   C.3       1 1      0.0000
    39 H16C     6.5953   2.2966   1.3666   H         1 1      0.0000
    40 H16A     5.7772   3.8489   1.2049   H         1 1      0.0000
    41 H16B     5.4055   2.7947   2.5670   H         1 1      0.0000
@<TRIPOS>BOND
     1     1     2   ar
     2     1     6   ar
     3     1    29    1
     4     2     3   ar
     5     2     7    1
     6     3     4   ar
     7     3    30    1
     8     4     5   ar
     9     4     8    1
    10     5     6   ar
    11     5     9    1
    12     6    10    1
    13     8    11    1
    14     8    12    1
    15     8    28    1
    16    11    13    1
    17    11    26    1
    18    11    27    1
    19    13    14    1
    20    14    15    1
    21    14    16    1
    22    14    31    1
    23    16    17    1
    24    16    20    2
    25    17    18    1
    26    17    19    1
    27    17    32    1
    28    20    21    1
    29    20    22    1
    30    22    23    1
    31    22    24    1
    32    22    25    1
    33    32    33    1
    34    32    34    1
    35    13    35    1
    36    35    36    1
    37    13    37    1
    38    32    38    1
    39    38    39    1
    40    38    40    1
    41    38    41    1
@<TRIPOS>SUBSTRUCTURE
     1 1           1 GROUP             0 ****  ****    0  
@<TRIPOS>MOLECULE
Molecule Name_00001_00061
    41    41     1     0     0
SMALL
NO_CHARGES
****
Generated from the CSD

@<TRIPOS>ATOM
     1 C5      -4.9105   0.1719  -1.1829   C.ar      1 1      0.0000
     2 C4      -3.9914  -0.7947  -1.5297   C.ar      1 1      0.0000
     3 C3      -2.8685  -1.0000  -0.7456   C.ar      1 1      0.0000
     4 C8      -2.6505  -0.2424   0.3949   C.ar      1 1      0.0000
     5 C7      -3.5827   0.7272   0.7310   C.ar      1 1      0.0000
     6 C6      -4.7060   0.9332  -0.0525   C.ar      1 1      0.0000
     7 H4      -4.1480  -1.3963  -2.4190   H         1 1      0.0000
     8 C9      -1.4246  -0.4642   1.2475   C.3       1 1      0.0000
     9 H7      -3.4303   1.3321   1.6187   H         1 1      0.0000
    10 H6      -5.4266   1.6956   0.2244   H         1 1      0.0000
    11 C10     -0.2139   0.3403   0.7785   C.3       1 1      0.0000
    12 H9A     -1.6569  -0.1883   2.2835   H         1 1      0.0000
    13 C11      1.0499   0.1544   1.6027   C.3       1 1      0.0000
    14 C12      2.2138   0.9703   1.0508   C.3       1 1      0.0000
    15 H12A     3.0286   0.9748   1.7853   H         1 1      0.0000
    16 C13      2.7326   0.4386  -0.2506   C.2       1 1      0.0000
    17 C14      3.8499   1.1907  -0.9091   C.3       1 1      0.0000
    18 H14B     3.6836   2.2655  -0.7653   H         1 1      0.0000
    19 H14A     3.8308   0.9943  -1.9881   H         1 1      0.0000
    20 N        2.2307  -0.6598  -0.7789   N.pl3     1 1      0.0000
    21 HN       1.5380  -1.1574  -0.2197   H         1 1      0.0000
    22 C        2.6588  -1.3068  -2.0106   C.3       1 1      0.0000
    23 H1A      2.5734  -2.3883  -1.9279   H         1 1      0.0000
    24 H1C      2.0468  -0.9819  -2.8494   H         1 1      0.0000
    25 H1B      3.6956  -1.0648  -2.2344   H         1 1      0.0000
    26 H10A     0.0061   0.0597  -0.2589   H         1 1      0.0000
    27 H10B    -0.4802   1.4044   0.7888   H         1 1      0.0000
    28 H9B     -1.1707  -1.5314   1.2352   H         1 1      0.0000
    29 H5      -5.7906   0.3328  -1.7968   H         1 1      0.0000
    30 H3      -2.1504  -1.7630  -1.0274   H         1 1      0.0000
    31 H12B     1.8875   2.0078   0.9080   H         1 1      0.0000
    32 C15      5.2210   0.8321  -0.3667   C.3       1 1      0.0000
    33 H15A     5.9894   1.3128  -0.9847   H         1 1      0.0000
    34 H15C     5.3642  -0.2531  -0.4392   H         1 1      0.0000
    35 OH       0.7909   0.5596   2.9497   O.3       1 1      0.0000
    36 OH1      0.0524   0.0172   3.3217   H         1 1      0.0000
    37 H22      1.3270  -0.9111   1.5960   H         1 1      0.0000
    38 C16      5.4017   1.2613   1.0710   C.3       1 1      0.0000
    39 H16C     4.9933   0.5159   1.7502   H         1 1      0.0000
    40 H16A     6.4562   1.3916   1.3050   H         1 1      0.0000
    41 H16B     4.8937   2.2050   1.2585   H         1 1      0.0000
@<TRIPOS>BOND
     1     1     2   ar
     2     1     6   ar
     3     1    29    1
     4     2     3   ar
     5     2     7    1
     6     3     4   ar
     7     3    30    1
     8     4     5   ar
     9     4     8    1
    10     5     6   ar
    11     5     9    1
    12     6    10    1
    13     8    11    1
    14     8    12    1
    15     8    28    1
    16    11    13    1
    17    11    26    1
    18    11    27    1
    19    13    14    1
    20    14    15    1
    21    14    16    1
    22    14    31    1
    23    16    17    1
    24    16    20    2
    25    17    18    1
    26    17    19    1
    27    17    32    1
    28    20    21    1
    29    20    22    1
    30    22    23    1
    31    22    24    1
    32    22    25    1
    33    32    33    1
    34    32    34    1
    35    13    35    1
    36    35    36    1
    37    13    37    1
    38    32    38    1
    39    38    39    1
    40    38    40    1
    41    38    41    1
@<TRIPOS>SUBSTRUCTURE
     1 1           1 GROUP             0 ****  ****    0  
@<TRIPOS>MOLECULE
Molecule Name_00001_00062
    41    41     1     0     0
SMALL
NO_CHARGES
****
Generated from the CSD

@<TRIPOS>ATOM
     1 C5      -4.8749  -0.1015  -1.2611   C.ar      1 1      0.0000
     2 C4      -3.9069  -1.0665  -1.4377   C.ar      1 1      0.0000
     3 C3      -2.8084  -1.1120  -0.5956   C.ar      1 1      0.0000
     4 C8      -2.6640  -0.1945   0.4337   C.ar      1 1      0.0000
     5 C7      -3.6447   0.7714   0.5988   C.ar      1 1      0.0000
     6 C6      -4.7437   0.8177  -0.2427   C.ar      1 1      0.0000
     7 H4      -4.0057  -1.7921  -2.2382   H         1 1      0.0000
     8 C9      -1.4647  -0.2424   1.3493   C.3       1 1      0.0000
     9 H7      -3.5502   1.4999   1.3973   H         1 1      0.0000
    10 H6      -5.5030   1.5795  -0.0999   H         1 1      0.0000
    11 C10     -0.2681   0.5404   0.8124   C.3       1 1      0.0000
    12 H9A     -1.7475   0.1646   2.3279   H         1 1      0.0000
    13 C11      0.9688   0.5257   1.6960   C.3       1 1      0.0000
    14 C12      2.1221   1.3044   1.0729   C.3       1 1      0.0000
    15 H12A     2.9036   1.4532   1.8282   H         1 1      0.0000
    16 C13      2.7172   0.6126  -0.1157   C.2       1 1      0.0000
    17 C14      3.8417   1.3035  -0.8271   C.3       1 1      0.0000
    18 H14B     3.6214   2.3771  -0.8747   H         1 1      0.0000
    19 H14A     3.8999   0.9316  -1.8573   H         1 1      0.0000
    20 N        2.2735  -0.5669  -0.5020   N.pl3     1 1      0.0000
    21 HN       1.5702  -1.0048   0.0928   H         1 1      0.0000
    22 C        2.7782  -1.3662  -1.6091   C.3       1 1      0.0000
    23 H1A      2.7426  -2.4263  -1.3669   H         1 1      0.0000
    24 H1C      2.1826  -1.2032  -2.5049   H         1 1      0.0000
    25 H1B      3.8095  -1.1047  -1.8361   H         1 1      0.0000
    26 H10A     0.0026   0.1280  -0.1675   H         1 1      0.0000
    27 H10B    -0.5749   1.5832   0.6641   H         1 1      0.0000
    28 H9B     -1.1701  -1.2889   1.4956   H         1 1      0.0000
    29 H5      -5.7359  -0.0657  -1.9204   H         1 1      0.0000
    30 H3      -2.0514  -1.8752  -0.7433   H         1 1      0.0000
    31 H12B     1.7614   2.2941   0.7665   H         1 1      0.0000
    32 C15      5.1892   1.1111  -0.1562   C.3       1 1      0.0000
    33 H15A     5.1247   1.4513   0.8847   H         1 1      0.0000
    34 H15C     5.9365   1.7322  -0.6653   H         1 1      0.0000
    35 OH       0.6428   1.1048   2.9626   O.3       1 1      0.0000
    36 OH1     -0.0890   0.5893   3.3830   H         1 1      0.0000
    37 H22      1.2854  -0.5175   1.8498   H         1 1      0.0000
    38 C16      5.6432  -0.3301  -0.1792   C.3       1 1      0.0000
    39 H16C     5.7372  -0.6886  -1.2022   H         1 1      0.0000
    40 H16A     6.6101  -0.4377   0.3078   H         1 1      0.0000
    41 H16B     4.9298  -0.9675   0.3391   H         1 1      0.0000
@<TRIPOS>BOND
     1     1     2   ar
     2     1     6   ar
     3     1    29    1
     4     2     3   ar
     5     2     7    1
     6     3     4   ar
     7     3    30    1
     8     4     5   ar
     9     4     8    1
    10     5     6   ar
    11     5     9    1
    12     6    10    1
    13     8    11    1
    14     8    12    1
    15     8    28    1
    16    11    13    1
    17    11    26    1
    18    11    27    1
    19    13    14    1
    20    14    15    1
    21    14    16    1
    22    14    31    1
    23    16    17    1
    24    16    20    2
    25    17    18    1
    26    17    19    1
    27    17    32    1
    28    20    21    1
    29    20    22    1
    30    22    23    1
    31    22    24    1
    32    22    25    1
    33    32    33    1
    34    32    34    1
    35    13    35    1
    36    35    36    1
    37    13    37    1
    38    32    38    1
    39    38    39    1
    40    38    40    1
    41    38    41    1
@<TRIPOS>SUBSTRUCTURE
     1 1           1 GROUP             0 ****  ****    0  
@<TRIPOS>MOLECULE
Molecule Name_00001_00063
    41    41     1     0     0
SMALL
NO_CHARGES
****
Generated from the CSD

@<TRIPOS>ATOM
     1 C5      -4.5344   1.0689  -0.9793   C.ar      1 1      0.0000
     2 C4      -3.6714   0.2877  -1.7170   C.ar      1 1      0.0000
     3 C3      -2.6398  -0.3915  -1.0904   C.ar      1 1      0.0000
     4 C8      -2.4584  -0.2990   0.2809   C.ar      1 1      0.0000
     5 C7      -3.3332   0.4915   1.0103   C.ar      1 1      0.0000
     6 C6      -4.3652   1.1710   0.3847   C.ar      1 1      0.0000
     7 H4      -3.8005   0.2045  -2.7911   H         1 1      0.0000
     8 C9      -1.3318  -1.0368   0.9630   C.3       1 1      0.0000
     9 H7      -3.2079   0.5787   2.0845   H         1 1      0.0000
    10 H6      -5.0419   1.7851   0.9696   H         1 1      0.0000
    11 C10     -0.0237  -0.2484   0.9836   C.3       1 1      0.0000
    12 H9A     -1.6280  -1.2637   1.9946   H         1 1      0.0000
    13 C11      1.1459  -0.9456   1.6595   C.3       1 1      0.0000
    14 C12      2.4159  -0.1034   1.6094   C.3       1 1      0.0000
    15 H12A     3.1603  -0.5366   2.2889   H         1 1      0.0000
    16 C13      3.0032  -0.0161   0.2335   C.2       1 1      0.0000
    17 C14      4.2403   0.8129   0.0606   C.3       1 1      0.0000
    18 H14B     4.7848   0.4533  -0.8212   H         1 1      0.0000
    19 H14A     4.8924   0.6745   0.9316   H         1 1      0.0000
    20 N        2.4552  -0.6623  -0.7762   N.pl3     1 1      0.0000
    21 HN       1.6713  -1.2750  -0.5518   H         1 1      0.0000
    22 C        2.9355  -0.6973  -2.1499   C.3       1 1      0.0000
    23 H1A      2.4567  -1.5009  -2.7055   H         1 1      0.0000
    24 H1C      2.7200   0.2406  -2.6575   H         1 1      0.0000
    25 H1B      4.0110  -0.8587  -2.1795   H         1 1      0.0000
    26 H10A     0.2600  -0.0235  -0.0519   H         1 1      0.0000
    27 H10B    -0.2020   0.7046   1.4970   H         1 1      0.0000
    28 H9B     -1.1660  -1.9900   0.4461   H         1 1      0.0000
    29 H5      -5.3429   1.6009  -1.4697   H         1 1      0.0000
    30 H3      -1.9653  -1.0035  -1.6801   H         1 1      0.0000
    31 H12B     2.1882   0.9089   1.9654   H         1 1      0.0000
    32 C15      3.9555   2.2935  -0.1120   C.3       1 1      0.0000
    33 H15A     4.9044   2.8438  -0.1203   H         1 1      0.0000
    34 H15C     3.3700   2.6496   0.7446   H         1 1      0.0000
    35 OH       0.8080  -1.2030   3.0254   O.3       1 1      0.0000
    36 OH1     -0.0019  -1.7692   3.0643   H         1 1      0.0000
    37 H22      1.3333  -1.9035   1.1501   H         1 1      0.0000
    38 C16      3.1998   2.5896  -1.3868   C.3       1 1      0.0000
    39 H16C     2.2424   2.0729  -1.3964   H         1 1      0.0000
    40 H16A     3.0102   3.6565  -1.4837   H         1 1      0.0000
    41 H16B     3.7684   2.2660  -2.2561   H         1 1      0.0000
@<TRIPOS>BOND
     1     1     2   ar
     2     1     6   ar
     3     1    29    1
     4     2     3   ar
     5     2     7    1
     6     3     4   ar
     7     3    30    1
     8     4     5   ar
     9     4     8    1
    10     5     6   ar
    11     5     9    1
    12     6    10    1
    13     8    11    1
    14     8    12    1
    15     8    28    1
    16    11    13    1
    17    11    26    1
    18    11    27    1
    19    13    14    1
    20    14    15    1
    21    14    16    1
    22    14    31    1
    23    16    17    1
    24    16    20    2
    25    17    18    1
    26    17    19    1
    27    17    32    1
    28    20    21    1
    29    20    22    1
    30    22    23    1
    31    22    24    1
    32    22    25    1
    33    32    33    1
    34    32    34    1
    35    13    35    1
    36    35    36    1
    37    13    37    1
    38    32    38    1
    39    38    39    1
    40    38    40    1
    41    38    41    1
@<TRIPOS>SUBSTRUCTURE
     1 1           1 GROUP             0 ****  ****    0  
@<TRIPOS>MOLECULE
Molecule Name_00001_00064
    41    41     1     0     0
SMALL
NO_CHARGES
****
Generated from the CSD

@<TRIPOS>ATOM
     1 C5      -4.6014   1.0125  -0.9258   C.ar      1 1      0.0000
     2 C4      -3.7796   0.1886  -1.6641   C.ar      1 1      0.0000
     3 C3      -2.7192  -0.4623  -1.0558   C.ar      1 1      0.0000
     4 C8      -2.4675  -0.2985   0.2977   C.ar      1 1      0.0000
     5 C7      -3.3016   0.5342   1.0277   C.ar      1 1      0.0000
     6 C6      -4.3622   1.1856   0.4204   C.ar      1 1      0.0000
     7 H4      -3.9637   0.0495  -2.7243   H         1 1      0.0000
     8 C9      -1.3096  -1.0056   0.9597   C.3       1 1      0.0000
     9 H7      -3.1211   0.6774   2.0880   H         1 1      0.0000
    10 H6      -5.0062   1.8335   1.0057   H         1 1      0.0000
    11 C10      0.0001  -0.2246   0.8717   C.3       1 1      0.0000
    12 H9A     -1.5533  -1.1761   2.0156   H         1 1      0.0000
    13 C11      1.2007  -0.8917   1.5231   C.3       1 1      0.0000
    14 C12      2.4693  -0.0613   1.3624   C.3       1 1      0.0000
    15 H12A     3.2446  -0.4584   2.0292   H         1 1      0.0000
    16 C13      2.9891  -0.0578  -0.0431   C.2       1 1      0.0000
    17 C14      4.2254   0.7435  -0.3215   C.3       1 1      0.0000
    18 H14B     4.7392   0.3086  -1.1877   H         1 1      0.0000
    19 H14A     4.9040   0.6703   0.5370   H         1 1      0.0000
    20 N        2.3850  -0.7508  -0.9877   N.pl3     1 1      0.0000
    21 HN       1.6064  -1.3393  -0.6918   H         1 1      0.0000
    22 C        2.7969  -0.8678  -2.3790   C.3       1 1      0.0000
    23 H1A      2.3603  -1.7527  -2.8373   H         1 1      0.0000
    24 H1C      2.4775   0.0017  -2.9498   H         1 1      0.0000
    25 H1B      3.8793  -0.9447  -2.4567   H         1 1      0.0000
    26 H10A     0.2310  -0.0563  -0.1875   H         1 1      0.0000
    27 H10B    -0.1489   0.7551   1.3422   H         1 1      0.0000
    28 H9B     -1.1733  -1.9857   0.4862   H         1 1      0.0000
    29 H5      -5.4323   1.5224  -1.4019   H         1 1      0.0000
    30 H3      -2.0776  -1.1084  -1.6458   H         1 1      0.0000
    31 H12B     2.2622   0.9714   1.6691   H         1 1      0.0000
    32 C15      3.9447   2.2076  -0.6051   C.3       1 1      0.0000
    33 H15A     3.2224   2.2828  -1.4273   H         1 1      0.0000
    34 H15C     4.8722   2.6956  -0.9291   H         1 1      0.0000
    35 OH       0.9331  -1.0734   2.9164   O.3       1 1      0.0000
    36 OH1      0.1245  -1.6318   3.0274   H         1 1      0.0000
    37 H22      1.3583  -1.8767   1.0570   H         1 1      0.0000
    38 C16      3.3981   2.9333   0.6025   C.3       1 1      0.0000
    39 H16C     3.8470   2.5523   1.5174   H         1 1      0.0000
    40 H16A     3.6085   3.9990   0.5400   H         1 1      0.0000
    41 H16B     2.3202   2.8044   0.6747   H         1 1      0.0000
@<TRIPOS>BOND
     1     1     2   ar
     2     1     6   ar
     3     1    29    1
     4     2     3   ar
     5     2     7    1
     6     3     4   ar
     7     3    30    1
     8     4     5   ar
     9     4     8    1
    10     5     6   ar
    11     5     9    1
    12     6    10    1
    13     8    11    1
    14     8    12    1
    15     8    28    1
    16    11    13    1
    17    11    26    1
    18    11    27    1
    19    13    14    1
    20    14    15    1
    21    14    16    1
    22    14    31    1
    23    16    17    1
    24    16    20    2
    25    17    18    1
    26    17    19    1
    27    17    32    1
    28    20    21    1
    29    20    22    1
    30    22    23    1
    31    22    24    1
    32    22    25    1
    33    32    33    1
    34    32    34    1
    35    13    35    1
    36    35    36    1
    37    13    37    1
    38    32    38    1
    39    38    39    1
    40    38    40    1
    41    38    41    1
@<TRIPOS>SUBSTRUCTURE
     1 1           1 GROUP             0 ****  ****    0  
@<TRIPOS>MOLECULE
Molecule Name_00001_00065
    41    41     1     0     0
SMALL
NO_CHARGES
****
Generated from the CSD

@<TRIPOS>ATOM
     1 C5      -5.5707   0.4654  -0.1786   C.ar      1 1      0.0000
     2 C4      -4.6965   0.8899  -1.1558   C.ar      1 1      0.0000
     3 C3      -3.3568   0.5459  -1.0878   C.ar      1 1      0.0000
     4 C8      -2.8742  -0.2272  -0.0430   C.ar      1 1      0.0000
     5 C7      -3.7647  -0.6462   0.9336   C.ar      1 1      0.0000
     6 C6      -5.1046  -0.3027   0.8665   C.ar      1 1      0.0000
     7 H4      -5.0588   1.4951  -1.9803   H         1 1      0.0000
     8 C9      -1.4132  -0.5993   0.0326   C.3       1 1      0.0000
     9 H7      -3.4073  -1.2507   1.7607   H         1 1      0.0000
    10 H6      -5.7889  -0.6390   1.6384   H         1 1      0.0000
    11 C10     -0.5620   0.4523   0.7415   C.3       1 1      0.0000
    12 H9A     -1.3160  -1.5543   0.5635   H         1 1      0.0000
    13 C11      0.9196   0.1280   0.8459   C.3       1 1      0.0000
    14 C12      1.6151   0.2037  -0.5089   C.3       1 1      0.0000
    15 H12A     1.5714   1.2362  -0.8770   H         1 1      0.0000
    16 C13      3.0469  -0.2348  -0.4540   C.2       1 1      0.0000
    17 C14      4.1003   0.8246  -0.5796   C.3       1 1      0.0000
    18 H14B     3.7762   1.5562  -1.3299   H         1 1      0.0000
    19 H14A     5.0297   0.3685  -0.9418   H         1 1      0.0000
    20 N        3.3577  -1.5044  -0.2835   N.pl3     1 1      0.0000
    21 HN       2.5809  -2.1436  -0.1153   H         1 1      0.0000
    22 C        4.6966  -2.0652  -0.1756   C.3       1 1      0.0000
    23 H1A      4.7086  -2.9044   0.5168   H         1 1      0.0000
    24 H1C      5.0450  -2.4198  -1.1434   H         1 1      0.0000
    25 H1B      5.4008  -1.3184   0.1847   H         1 1      0.0000
    26 H10A    -0.6704   1.4030   0.2050   H         1 1      0.0000
    27 H10B    -0.9577   0.5921   1.7550   H         1 1      0.0000
    28 H9B     -1.0292  -0.7427  -0.9850   H         1 1      0.0000
    29 H5      -6.6205   0.7346  -0.2317   H         1 1      0.0000
    30 H3      -2.6764   0.8855  -1.8617   H         1 1      0.0000
    31 H12B     1.0750  -0.4287  -1.2242   H         1 1      0.0000
    32 C15      4.3825   1.5524   0.7217   C.3       1 1      0.0000
    33 H15A     4.6632   0.8210   1.4895   H         1 1      0.0000
    34 H15C     3.4678   2.0560   1.0581   H         1 1      0.0000
    35 OH       1.5371   1.0561   1.7421   O.3       1 1      0.0000
    36 OH1      1.1060   0.9948   2.6300   H         1 1      0.0000
    37 H22      1.0347  -0.8901   1.2489   H         1 1      0.0000
    38 C16      5.4881   2.5732   0.5823   C.3       1 1      0.0000
    39 H16C     5.2271   3.3257  -0.1590   H         1 1      0.0000
    40 H16A     5.6683   3.0783   1.5289   H         1 1      0.0000
    41 H16B     6.4154   2.0973   0.2701   H         1 1      0.0000
@<TRIPOS>BOND
     1     1     2   ar
     2     1     6   ar
     3     1    29    1
     4     2     3   ar
     5     2     7    1
     6     3     4   ar
     7     3    30    1
     8     4     5   ar
     9     4     8    1
    10     5     6   ar
    11     5     9    1
    12     6    10    1
    13     8    11    1
    14     8    12    1
    15     8    28    1
    16    11    13    1
    17    11    26    1
    18    11    27    1
    19    13    14    1
    20    14    15    1
    21    14    16    1
    22    14    31    1
    23    16    17    1
    24    16    20    2
    25    17    18    1
    26    17    19    1
    27    17    32    1
    28    20    21    1
    29    20    22    1
    30    22    23    1
    31    22    24    1
    32    22    25    1
    33    32    33    1
    34    32    34    1
    35    13    35    1
    36    35    36    1
    37    13    37    1
    38    32    38    1
    39    38    39    1
    40    38    40    1
    41    38    41    1
@<TRIPOS>SUBSTRUCTURE
     1 1           1 GROUP             0 ****  ****    0  
@<TRIPOS>MOLECULE
Molecule Name_00001_00066
    41    41     1     0     0
SMALL
NO_CHARGES
****
Generated from the CSD

@<TRIPOS>ATOM
     1 C5      -4.2189  -0.7265   1.4726   C.ar      1 1      0.0000
     2 C4      -3.8200   0.5922   1.5099   C.ar      1 1      0.0000
     3 C3      -3.0835   1.1260   0.4656   C.ar      1 1      0.0000
     4 C8      -2.7370   0.3489  -0.6290   C.ar      1 1      0.0000
     5 C7      -3.1439  -0.9762  -0.6526   C.ar      1 1      0.0000
     6 C6      -3.8805  -1.5109   0.3911   C.ar      1 1      0.0000
     7 H4      -4.0837   1.2136   2.3593   H         1 1      0.0000
     8 C9      -1.9313   0.9302  -1.7656   C.3       1 1      0.0000
     9 H7      -2.8819  -1.6021  -1.4993   H         1 1      0.0000
    10 H6      -4.1919  -2.5497   0.3574   H         1 1      0.0000
    11 C10     -0.5945   1.5161  -1.3154   C.3       1 1      0.0000
    12 H9A     -1.7447   0.1444  -2.5080   H         1 1      0.0000
    13 C11      0.4484   0.4992  -0.8803   C.3       1 1      0.0000
    14 C12      1.7653   1.1643  -0.4955   C.3       1 1      0.0000
    15 H12A     1.6004   1.8070   0.3782   H         1 1      0.0000
    16 C13      2.8460   0.1761  -0.1777   C.2       1 1      0.0000
    17 C14      4.1823   0.7197   0.2307   C.3       1 1      0.0000
    18 H14B     4.4097   1.5966  -0.3880   H         1 1      0.0000
    19 H14A     4.9543  -0.0340   0.0334   H         1 1      0.0000
    20 N        2.6150  -1.1200  -0.2407   N.pl3     1 1      0.0000
    21 HN       1.6545  -1.4012  -0.4371   H         1 1      0.0000
    22 C        3.5538  -2.1872   0.0735   C.3       1 1      0.0000
    23 H1A      3.0393  -3.0332   0.5244   H         1 1      0.0000
    24 H1C      4.0555  -2.5364  -0.8265   H         1 1      0.0000
    25 H1B      4.3131  -1.8411   0.7715   H         1 1      0.0000
    26 H10A    -0.1791   2.1042  -2.1431   H         1 1      0.0000
    27 H10B    -0.7808   2.2003  -0.4784   H         1 1      0.0000
    28 H9B     -2.5198   1.7171  -2.2533   H         1 1      0.0000
    29 H5      -4.7962  -1.1449   2.2904   H         1 1      0.0000
    30 H3      -2.7737   2.1651   0.5047   H         1 1      0.0000
    31 H12B     2.0981   1.8040  -1.3222   H         1 1      0.0000
    32 C15      4.2488   1.1231   1.6921   C.3       1 1      0.0000
    33 H15A     4.0202   0.2509   2.3169   H         1 1      0.0000
    34 H15C     3.4852   1.8855   1.8901   H         1 1      0.0000
    35 OH      -0.0535  -0.2308   0.2426   O.3       1 1      0.0000
    36 OH1     -0.5309  -1.0370  -0.0739   H         1 1      0.0000
    37 H22      0.6320  -0.2010  -1.7099   H         1 1      0.0000
    38 C16      5.6048   1.6673   2.0780   C.3       1 1      0.0000
    39 H16C     5.8490   2.5482   1.4880   H         1 1      0.0000
    40 H16A     5.6230   1.9476   3.1291   H         1 1      0.0000
    41 H16B     6.3805   0.9227   1.9123   H         1 1      0.0000
@<TRIPOS>BOND
     1     1     2   ar
     2     1     6   ar
     3     1    29    1
     4     2     3   ar
     5     2     7    1
     6     3     4   ar
     7     3    30    1
     8     4     5   ar
     9     4     8    1
    10     5     6   ar
    11     5     9    1
    12     6    10    1
    13     8    11    1
    14     8    12    1
    15     8    28    1
    16    11    13    1
    17    11    26    1
    18    11    27    1
    19    13    14    1
    20    14    15    1
    21    14    16    1
    22    14    31    1
    23    16    17    1
    24    16    20    2
    25    17    18    1
    26    17    19    1
    27    17    32    1
    28    20    21    1
    29    20    22    1
    30    22    23    1
    31    22    24    1
    32    22    25    1
    33    32    33    1
    34    32    34    1
    35    13    35    1
    36    35    36    1
    37    13    37    1
    38    32    38    1
    39    38    39    1
    40    38    40    1
    41    38    41    1
@<TRIPOS>SUBSTRUCTURE
     1 1           1 GROUP             0 ****  ****    0  
@<TRIPOS>MOLECULE
Molecule Name_00001_00067
    41    41     1     0     0
SMALL
NO_CHARGES
****
Generated from the CSD

@<TRIPOS>ATOM
     1 C5      -4.4374  -1.2793   0.6993   C.ar      1 1      0.0000
     2 C4      -4.0624  -0.1725   1.4300   C.ar      1 1      0.0000
     3 C3      -3.2383   0.7870   0.8657   C.ar      1 1      0.0000
     4 C8      -2.7794   0.6527  -0.4356   C.ar      1 1      0.0000
     5 C7      -3.1636  -0.4663  -1.1584   C.ar      1 1      0.0000
     6 C6      -3.9876  -1.4263  -0.5951   C.ar      1 1      0.0000
     7 H4      -4.4136  -0.0525   2.4495   H         1 1      0.0000
     8 C9      -1.8785   1.6971  -1.0492   C.3       1 1      0.0000
     9 H7      -2.8143  -0.5915  -2.1780   H         1 1      0.0000
    10 H6      -4.2799  -2.2961  -1.1741   H         1 1      0.0000
    11 C10     -0.5985   1.9303  -0.2491   C.3       1 1      0.0000
    12 H9A     -1.6117   1.3840  -2.0661   H         1 1      0.0000
    13 C11      0.4130   0.7963  -0.2943   C.3       1 1      0.0000
    14 C12      1.6783   1.1315   0.4876   C.3       1 1      0.0000
    15 H12A     1.4229   1.2542   1.5474   H         1 1      0.0000
    16 C13      2.7382   0.0799   0.3595   C.2       1 1      0.0000
    17 C14      4.0222   0.2975   1.1022   C.3       1 1      0.0000
    18 H14B     4.4946  -0.6761   1.2816   H         1 1      0.0000
    19 H14A     3.8027   0.7441   2.0797   H         1 1      0.0000
    20 N        2.5323  -1.0005  -0.3670   N.pl3     1 1      0.0000
    21 HN       1.5987  -1.1110  -0.7623   H         1 1      0.0000
    22 C        3.4523  -2.1136  -0.5505   C.3       1 1      0.0000
    23 H1A      2.9215  -3.0007  -0.8897   H         1 1      0.0000
    24 H1C      4.2106  -1.8686  -1.2912   H         1 1      0.0000
    25 H1B      3.9566  -2.3563   0.3824   H         1 1      0.0000
    26 H10A    -0.1153   2.8393  -0.6282   H         1 1      0.0000
    27 H10B    -0.8723   2.1080   0.7982   H         1 1      0.0000
    28 H9B     -2.4295   2.6426  -1.1247   H         1 1      0.0000
    29 H5      -5.0832  -2.0310   1.1409   H         1 1      0.0000
    30 H3      -2.9483   1.6544   1.4493   H         1 1      0.0000
    31 H12B     2.0785   2.0875   0.1280   H         1 1      0.0000
    32 C15      5.0040   1.1874   0.3626   C.3       1 1      0.0000
    33 H15A     4.5370   2.1628   0.1781   H         1 1      0.0000
    34 H15C     5.2346   0.7376  -0.6110   H         1 1      0.0000
    35 OH      -0.1821  -0.3805   0.2597   O.3       1 1      0.0000
    36 OH1     -0.6104  -0.9048  -0.4612   H         1 1      0.0000
    37 H22      0.6838   0.6011  -1.3434   H         1 1      0.0000
    38 C16      6.2888   1.3909   1.1318   C.3       1 1      0.0000
    39 H16C     6.7859   0.4398   1.3106   H         1 1      0.0000
    40 H16A     6.9722   2.0317   0.5785   H         1 1      0.0000
    41 H16B     6.0920   1.8569   2.0950   H         1 1      0.0000
@<TRIPOS>BOND
     1     1     2   ar
     2     1     6   ar
     3     1    29    1
     4     2     3   ar
     5     2     7    1
     6     3     4   ar
     7     3    30    1
     8     4     5   ar
     9     4     8    1
    10     5     6   ar
    11     5     9    1
    12     6    10    1
    13     8    11    1
    14     8    12    1
    15     8    28    1
    16    11    13    1
    17    11    26    1
    18    11    27    1
    19    13    14    1
    20    14    15    1
    21    14    16    1
    22    14    31    1
    23    16    17    1
    24    16    20    2
    25    17    18    1
    26    17    19    1
    27    17    32    1
    28    20    21    1
    29    20    22    1
    30    22    23    1
    31    22    24    1
    32    22    25    1
    33    32    33    1
    34    32    34    1
    35    13    35    1
    36    35    36    1
    37    13    37    1
    38    32    38    1
    39    38    39    1
    40    38    40    1
    41    38    41    1
@<TRIPOS>SUBSTRUCTURE
     1 1           1 GROUP             0 ****  ****    0  
@<TRIPOS>MOLECULE
Molecule Name_00001_00068
    41    41     1     0     0
SMALL
NO_CHARGES
****
Generated from the CSD

@<TRIPOS>ATOM
     1 C5      -5.4710   0.0402   0.4504   C.ar      1 1      0.0000
     2 C4      -4.8294   0.7269   1.4584   C.ar      1 1      0.0000
     3 C3      -3.4603   0.9275   1.4013   C.ar      1 1      0.0000
     4 C8      -2.7157   0.4453   0.3358   C.ar      1 1      0.0000
     5 C7      -3.3741  -0.2447  -0.6704   C.ar      1 1      0.0000
     6 C6      -4.7432  -0.4459  -0.6142   C.ar      1 1      0.0000
     7 H4      -5.3981   1.1111   2.2987   H         1 1      0.0000
     8 C9      -1.2229   0.6614   0.2755   C.3       1 1      0.0000
     9 H7      -2.8098  -0.6318  -1.5124   H         1 1      0.0000
    10 H6      -5.2438  -0.9874  -1.4100   H         1 1      0.0000
    11 C10     -0.5792   0.0590  -0.9718   C.3       1 1      0.0000
    12 H9A     -1.0180   1.7389   0.2980   H         1 1      0.0000
    13 C11      0.9251   0.2477  -1.0837   C.3       1 1      0.0000
    14 C12      1.6810  -0.5895  -0.0578   C.3       1 1      0.0000
    15 H12A     1.4986  -1.6525  -0.2582   H         1 1      0.0000
    16 C13      3.1579  -0.3361  -0.0734   C.2       1 1      0.0000
    17 C14      3.6447   0.9541   0.5150   C.3       1 1      0.0000
    18 H14B     2.9510   1.7548   0.2304   H         1 1      0.0000
    19 H14A     4.6252   1.1983   0.0882   H         1 1      0.0000
    20 N        3.9903  -1.2283  -0.5717   N.pl3     1 1      0.0000
    21 HN       3.5824  -2.1154  -0.8664   H         1 1      0.0000
    22 C        5.4421  -1.1322  -0.6194   C.3       1 1      0.0000
    23 H1A      5.8979  -2.1112  -0.4871   H         1 1      0.0000
    24 H1C      5.7705  -0.7321  -1.5764   H         1 1      0.0000
    25 H1B      5.8122  -0.4770   0.1662   H         1 1      0.0000
    26 H10A    -0.7943  -1.0166  -0.9860   H         1 1      0.0000
    27 H10B    -1.0507   0.5069  -1.8553   H         1 1      0.0000
    28 H9B     -0.7623   0.2155   1.1657   H         1 1      0.0000
    29 H5      -6.5437  -0.1170   0.4947   H         1 1      0.0000
    30 H3      -2.9643   1.4689   2.2001   H         1 1      0.0000
    31 H12B     1.2910  -0.3668   0.9430   H         1 1      0.0000
    32 C15      3.7593   0.9224   2.0278   C.3       1 1      0.0000
    33 H15A     4.4505   0.1221   2.3196   H         1 1      0.0000
    34 H15C     2.7775   0.6897   2.4583   H         1 1      0.0000
    35 OH       1.3451  -0.1301  -2.3977   O.3       1 1      0.0000
    36 OH1      0.8757   0.4262  -3.0673   H         1 1      0.0000
    37 H22      1.1646   1.3102  -0.9225   H         1 1      0.0000
    38 C16      4.2516   2.2336   2.5954   C.3       1 1      0.0000
    39 H16C     3.5722   3.0440   2.3395   H         1 1      0.0000
    40 H16A     4.3239   2.1816   3.6798   H         1 1      0.0000
    41 H16B     5.2356   2.4792   2.2015   H         1 1      0.0000
@<TRIPOS>BOND
     1     1     2   ar
     2     1     6   ar
     3     1    29    1
     4     2     3   ar
     5     2     7    1
     6     3     4   ar
     7     3    30    1
     8     4     5   ar
     9     4     8    1
    10     5     6   ar
    11     5     9    1
    12     6    10    1
    13     8    11    1
    14     8    12    1
    15     8    28    1
    16    11    13    1
    17    11    26    1
    18    11    27    1
    19    13    14    1
    20    14    15    1
    21    14    16    1
    22    14    31    1
    23    16    17    1
    24    16    20    2
    25    17    18    1
    26    17    19    1
    27    17    32    1
    28    20    21    1
    29    20    22    1
    30    22    23    1
    31    22    24    1
    32    22    25    1
    33    32    33    1
    34    32    34    1
    35    13    35    1
    36    35    36    1
    37    13    37    1
    38    32    38    1
    39    38    39    1
    40    38    40    1
    41    38    41    1
@<TRIPOS>SUBSTRUCTURE
     1 1           1 GROUP             0 ****  ****    0  
@<TRIPOS>MOLECULE
Molecule Name_00001_00069
    41    41     1     0     0
SMALL
NO_CHARGES
****
Generated from the CSD

@<TRIPOS>ATOM
     1 C5      -5.5210   0.0782   0.1143   C.ar      1 1      0.0000
     2 C4      -4.9710   0.0687   1.3779   C.ar      1 1      0.0000
     3 C3      -3.5984   0.1574   1.5397   C.ar      1 1      0.0000
     4 C8      -2.7588   0.2577   0.4411   C.ar      1 1      0.0000
     5 C7      -3.3258   0.2649  -0.8241   C.ar      1 1      0.0000
     6 C6      -4.6982   0.1762  -0.9870   C.ar      1 1      0.0000
     7 H4      -5.6147  -0.0086   2.2479   H         1 1      0.0000
     8 C9      -1.2625   0.3512   0.6178   C.3       1 1      0.0000
     9 H7      -2.6864   0.3410  -1.6973   H         1 1      0.0000
    10 H6      -5.1266   0.1838  -1.9838   H         1 1      0.0000
    11 C10     -0.5072   0.4551  -0.7058   C.3       1 1      0.0000
    12 H9A     -1.0307   1.2307   1.2310   H         1 1      0.0000
    13 C11      1.0052   0.5520  -0.5862   C.3       1 1      0.0000
    14 C12      1.6238  -0.7606  -0.1182   C.3       1 1      0.0000
    15 H12A     1.3887  -1.5472  -0.8458   H         1 1      0.0000
    16 C13      3.1108  -0.6775   0.0475   C.2       1 1      0.0000
    17 C14      3.6332   0.0374   1.2573   C.3       1 1      0.0000
    18 H14B     4.5917  -0.4118   1.5452   H         1 1      0.0000
    19 H14A     2.9359  -0.1075   2.0915   H         1 1      0.0000
    20 N        3.9199  -1.2309  -0.8337   N.pl3     1 1      0.0000
    21 HN       3.4798  -1.7751  -1.5755   H         1 1      0.0000
    22 C        5.3744  -1.2595  -0.7813   C.3       1 1      0.0000
    23 H1A      5.7685  -2.0366  -1.4329   H         1 1      0.0000
    24 H1C      5.7902  -0.3063  -1.1010   H         1 1      0.0000
    25 H1B      5.7211  -1.4575   0.2307   H         1 1      0.0000
    26 H10A    -0.7499  -0.4264  -1.3118   H         1 1      0.0000
    27 H10B    -0.8692   1.3409  -1.2423   H         1 1      0.0000
    28 H9B     -0.9119  -0.5356   1.1601   H         1 1      0.0000
    29 H5      -6.5963   0.0090  -0.0129   H         1 1      0.0000
    30 H3      -3.1750   0.1485   2.5387   H         1 1      0.0000
    31 H12B     1.1732  -1.0470   0.8401   H         1 1      0.0000
    32 C15      3.8378   1.5250   1.0381   C.3       1 1      0.0000
    33 H15A     2.8793   1.9836   0.7653   H         1 1      0.0000
    34 H15C     4.5299   1.6734   0.2000   H         1 1      0.0000
    35 OH       1.5516   0.8989  -1.8618   O.3       1 1      0.0000
    36 OH1      1.1720   1.7620  -2.1601   H         1 1      0.0000
    37 H22      1.2562   1.3423   0.1381   H         1 1      0.0000
    38 C16      4.3873   2.2174   2.2637   C.3       1 1      0.0000
    39 H16C     5.3504   1.7967   2.5451   H         1 1      0.0000
    40 H16A     4.5233   3.2807   2.0776   H         1 1      0.0000
    41 H16B     3.7089   2.1050   3.1069   H         1 1      0.0000
@<TRIPOS>BOND
     1     1     2   ar
     2     1     6   ar
     3     1    29    1
     4     2     3   ar
     5     2     7    1
     6     3     4   ar
     7     3    30    1
     8     4     5   ar
     9     4     8    1
    10     5     6   ar
    11     5     9    1
    12     6    10    1
    13     8    11    1
    14     8    12    1
    15     8    28    1
    16    11    13    1
    17    11    26    1
    18    11    27    1
    19    13    14    1
    20    14    15    1
    21    14    16    1
    22    14    31    1
    23    16    17    1
    24    16    20    2
    25    17    18    1
    26    17    19    1
    27    17    32    1
    28    20    21    1
    29    20    22    1
    30    22    23    1
    31    22    24    1
    32    22    25    1
    33    32    33    1
    34    32    34    1
    35    13    35    1
    36    35    36    1
    37    13    37    1
    38    32    38    1
    39    38    39    1
    40    38    40    1
    41    38    41    1
@<TRIPOS>SUBSTRUCTURE
     1 1           1 GROUP             0 ****  ****    0  
@<TRIPOS>MOLECULE
Molecule Name_00001_00070
    41    41     1     0     0
SMALL
NO_CHARGES
****
Generated from the CSD

@<TRIPOS>ATOM
     1 C5      -5.5737   0.5171  -0.2113   C.ar      1 1      0.0000
     2 C4      -5.0812  -0.3619  -1.1516   C.ar      1 1      0.0000
     3 C3      -3.7406  -0.7093  -1.1441   C.ar      1 1      0.0000
     4 C8      -2.8759  -0.1833  -0.1965   C.ar      1 1      0.0000
     5 C7      -3.3848   0.7006   0.7424   C.ar      1 1      0.0000
     6 C6      -4.7253   1.0487   0.7358   C.ar      1 1      0.0000
     7 H4      -5.7452  -0.7827  -1.8994   H         1 1      0.0000
     8 C9      -1.4140  -0.5597  -0.1907   C.3       1 1      0.0000
     9 H7      -2.7248   1.1250   1.4918   H         1 1      0.0000
    10 H6      -5.1083   1.7414   1.4779   H         1 1      0.0000
    11 C10     -0.6239   0.1194   0.9262   C.3       1 1      0.0000
    12 H9A     -1.3269  -1.6476  -0.0789   H         1 1      0.0000
    13 C11      0.8560  -0.2247   0.9786   C.3       1 1      0.0000
    14 C12      1.6227   0.3821  -0.1913   C.3       1 1      0.0000
    15 H12A     1.6123   1.4751  -0.0983   H         1 1      0.0000
    16 C13      3.0436  -0.0883  -0.2633   C.2       1 1      0.0000
    17 C14      4.0210   0.5121   0.7021   C.3       1 1      0.0000
    18 H14B     4.8553  -0.1869   0.8391   H         1 1      0.0000
    19 H14A     3.5336   0.6407   1.6763   H         1 1      0.0000
    20 N        3.4063  -1.0087  -1.1343   N.pl3     1 1      0.0000
    21 HN       2.6604  -1.4283  -1.6890   H         1 1      0.0000
    22 C        4.7349  -1.5826  -1.2909   C.3       1 1      0.0000
    23 H1A      4.6849  -2.5322  -1.8197   H         1 1      0.0000
    24 H1C      5.3795  -0.9133  -1.8567   H         1 1      0.0000
    25 H1B      5.1969  -1.7583  -0.3218   H         1 1      0.0000
    26 H10A    -0.7218   1.2055   0.8070   H         1 1      0.0000
    27 H10B    -1.0770  -0.1547   1.8869   H         1 1      0.0000
    28 H9B     -0.9723  -0.2871  -1.1572   H         1 1      0.0000
    29 H5      -6.6240   0.7893  -0.2167   H         1 1      0.0000
    30 H3      -3.3624  -1.4017  -1.8889   H         1 1      0.0000
    31 H12B     1.1125   0.1219  -1.1269   H         1 1      0.0000
    32 C15      4.5747   1.8497   0.2471   C.3       1 1      0.0000
    33 H15A     3.7450   2.5534   0.1063   H         1 1      0.0000
    34 H15C     5.0730   1.7221  -0.7218   H         1 1      0.0000
    35 OH       1.4050   0.2674   2.2043   O.3       1 1      0.0000
    36 OH1      0.9274  -0.1411   2.9678   H         1 1      0.0000
    37 H22      0.9691  -1.3195   0.9492   H         1 1      0.0000
    38 C16      5.5565   2.4331   1.2368   C.3       1 1      0.0000
    39 H16C     6.4029   1.7646   1.3800   H         1 1      0.0000
    40 H16A     5.9361   3.3901   0.8850   H         1 1      0.0000
    41 H16B     5.0821   2.5911   2.2031   H         1 1      0.0000
@<TRIPOS>BOND
     1     1     2   ar
     2     1     6   ar
     3     1    29    1
     4     2     3   ar
     5     2     7    1
     6     3     4   ar
     7     3    30    1
     8     4     5   ar
     9     4     8    1
    10     5     6   ar
    11     5     9    1
    12     6    10    1
    13     8    11    1
    14     8    12    1
    15     8    28    1
    16    11    13    1
    17    11    26    1
    18    11    27    1
    19    13    14    1
    20    14    15    1
    21    14    16    1
    22    14    31    1
    23    16    17    1
    24    16    20    2
    25    17    18    1
    26    17    19    1
    27    17    32    1
    28    20    21    1
    29    20    22    1
    30    22    23    1
    31    22    24    1
    32    22    25    1
    33    32    33    1
    34    32    34    1
    35    13    35    1
    36    35    36    1
    37    13    37    1
    38    32    38    1
    39    38    39    1
    40    38    40    1
    41    38    41    1
@<TRIPOS>SUBSTRUCTURE
     1 1           1 GROUP             0 ****  ****    0  
@<TRIPOS>MOLECULE
Molecule Name_00001_00071
    41    41     1     0     0
SMALL
NO_CHARGES
****
Generated from the CSD

@<TRIPOS>ATOM
     1 C5      -3.6713  -1.6813   0.8464   C.ar      1 1      0.0000
     2 C4      -3.3279  -0.5364   1.5323   C.ar      1 1      0.0000
     3 C3      -2.7204   0.5164   0.8685   C.ar      1 1      0.0000
     4 C8      -2.4494   0.4383  -0.4889   C.ar      1 1      0.0000
     5 C7      -2.7992  -0.7198  -1.1660   C.ar      1 1      0.0000
     6 C6      -3.4068  -1.7731  -0.5030   C.ar      1 1      0.0000
     7 H4      -3.5338  -0.4596   2.5948   H         1 1      0.0000
     8 C9      -1.7843   1.5848  -1.2115   C.3       1 1      0.0000
     9 H7      -2.5946  -0.8020  -2.2283   H         1 1      0.0000
    10 H6      -3.6750  -2.6726  -1.0473   H         1 1      0.0000
    11 C10     -0.2591   1.5270  -1.1530   C.3       1 1      0.0000
    12 H9A     -2.1018   1.5760  -2.2615   H         1 1      0.0000
    13 C11      0.3497   1.7780   0.2172   C.3       1 1      0.0000
    14 C12      1.8706   1.6728   0.1916   C.3       1 1      0.0000
    15 H12A     2.2734   2.0725   1.1304   H         1 1      0.0000
    16 C13      2.3543   0.2658   0.0125   C.2       1 1      0.0000
    17 C14      3.8359   0.0472  -0.0569   C.3       1 1      0.0000
    18 H14B     4.2842   0.8571  -0.6456   H         1 1      0.0000
    19 H14A     4.0378  -0.8945  -0.5819   H         1 1      0.0000
    20 N        1.5016  -0.7365  -0.0621   N.pl3     1 1      0.0000
    21 HN       0.5187  -0.5087   0.0863   H         1 1      0.0000
    22 C        1.8287  -2.1484  -0.1986   C.3       1 1      0.0000
    23 H1A      1.1129  -2.7640   0.3422   H         1 1      0.0000
    24 H1C      1.8116  -2.4485  -1.2442   H         1 1      0.0000
    25 H1B      2.8208  -2.3555   0.1968   H         1 1      0.0000
    26 H10A     0.0622   0.5362  -1.4974   H         1 1      0.0000
    27 H10B     0.1426   2.2713  -1.8516   H         1 1      0.0000
    28 H9B     -2.1229   2.5294  -0.7683   H         1 1      0.0000
    29 H5      -4.1475  -2.5062   1.3661   H         1 1      0.0000
    30 H3      -2.4533   1.4133   1.4175   H         1 1      0.0000
    31 H12B     2.2583   2.2907  -0.6278   H         1 1      0.0000
    32 C15      4.5045   0.0058   1.3048   C.3       1 1      0.0000
    33 H15A     4.0593  -0.8011   1.8997   H         1 1      0.0000
    34 H15C     4.3142   0.9511   1.8279   H         1 1      0.0000
    35 OH      -0.0220   3.0866   0.6589   O.3       1 1      0.0000
    36 OH1     -1.0053   3.1371   0.7516   H         1 1      0.0000
    37 H22     -0.0469   1.0344   0.9257   H         1 1      0.0000
    38 C16      5.9962  -0.2155   1.2073   C.3       1 1      0.0000
    39 H16C     6.4683   0.5836   0.6394   H         1 1      0.0000
    40 H16A     6.4478  -0.2406   2.1968   H         1 1      0.0000
    41 H16B     6.2145  -1.1587   0.7109   H         1 1      0.0000
@<TRIPOS>BOND
     1     1     2   ar
     2     1     6   ar
     3     1    29    1
     4     2     3   ar
     5     2     7    1
     6     3     4   ar
     7     3    30    1
     8     4     5   ar
     9     4     8    1
    10     5     6   ar
    11     5     9    1
    12     6    10    1
    13     8    11    1
    14     8    12    1
    15     8    28    1
    16    11    13    1
    17    11    26    1
    18    11    27    1
    19    13    14    1
    20    14    15    1
    21    14    16    1
    22    14    31    1
    23    16    17    1
    24    16    20    2
    25    17    18    1
    26    17    19    1
    27    17    32    1
    28    20    21    1
    29    20    22    1
    30    22    23    1
    31    22    24    1
    32    22    25    1
    33    32    33    1
    34    32    34    1
    35    13    35    1
    36    35    36    1
    37    13    37    1
    38    32    38    1
    39    38    39    1
    40    38    40    1
    41    38    41    1
@<TRIPOS>SUBSTRUCTURE
     1 1           1 GROUP             0 ****  ****    0  
@<TRIPOS>MOLECULE
Molecule Name_00001_00072
    41    41     1     0     0
SMALL
NO_CHARGES
****
Generated from the CSD

@<TRIPOS>ATOM
     1 C5      -3.7590  -1.6206  -0.7165   C.ar      1 1      0.0000
     2 C4      -3.4516  -1.3669   0.6028   C.ar      1 1      0.0000
     3 C3      -2.7790  -0.2071   0.9497   C.ar      1 1      0.0000
     4 C8      -2.4060   0.7138  -0.0172   C.ar      1 1      0.0000
     5 C7      -2.7206   0.4451  -1.3404   C.ar      1 1      0.0000
     6 C6      -3.3932  -0.7145  -1.6884   C.ar      1 1      0.0000
     7 H4      -3.7372  -2.0775   1.3714   H         1 1      0.0000
     8 C9      -1.6700   1.9764   0.3609   C.3       1 1      0.0000
     9 H7      -2.4364   1.1519  -2.1130   H         1 1      0.0000
    10 H6      -3.6327  -0.9100  -2.7284   H         1 1      0.0000
    11 C10     -0.1548   1.7928   0.4205   C.3       1 1      0.0000
    12 H9A     -1.9062   2.7589  -0.3707   H         1 1      0.0000
    13 C11      0.3510   0.9214   1.5589   C.3       1 1      0.0000
    14 C12      1.8675   0.7674   1.5266   C.3       1 1      0.0000
    15 H12A     2.2033   0.3260   2.4730   H         1 1      0.0000
    16 C13      2.3421  -0.0896   0.3926   C.2       1 1      0.0000
    17 C14      3.8211  -0.2861   0.2457   C.3       1 1      0.0000
    18 H14B     3.9998  -1.2236  -0.2951   H         1 1      0.0000
    19 H14A     4.2726  -0.3865   1.2403   H         1 1      0.0000
    20 N        1.4824  -0.6593  -0.4282   N.pl3     1 1      0.0000
    21 HN       0.4945  -0.5475  -0.2006   H         1 1      0.0000
    22 C        1.7973  -1.5404  -1.5433   C.3       1 1      0.0000
    23 H1A      0.9067  -2.0639  -1.8846   H         1 1      0.0000
    24 H1C      2.1989  -0.9737  -2.3807   H         1 1      0.0000
    25 H1B      2.5366  -2.2835  -1.2521   H         1 1      0.0000
    26 H10A     0.1767   1.3500  -0.5268   H         1 1      0.0000
    27 H10B     0.3106   2.7822   0.5092   H         1 1      0.0000
    28 H9B     -2.0271   2.3168   1.3407   H         1 1      0.0000
    29 H5      -4.2862  -2.5290  -0.9886   H         1 1      0.0000
    30 H3      -2.5411  -0.0168   1.9910   H         1 1      0.0000
    31 H12B     2.3262   1.7602   1.4401   H         1 1      0.0000
    32 C15      4.5094   0.8444  -0.4966   C.3       1 1      0.0000
    33 H15A     4.3330   1.7858   0.0380   H         1 1      0.0000
    34 H15C     4.0679   0.9398  -1.4963   H         1 1      0.0000
    35 OH      -0.0335   1.5123   2.8035   O.3       1 1      0.0000
    36 OH1     -1.0188   1.4957   2.8867   H         1 1      0.0000
    37 H22     -0.1101  -0.0751   1.4777   H         1 1      0.0000
    38 C16      5.9981   0.6224  -0.6311   C.3       1 1      0.0000
    39 H16C     6.2034  -0.2956  -1.1779   H         1 1      0.0000
    40 H16A     6.4642   1.4471  -1.1663   H         1 1      0.0000
    41 H16B     6.4667   0.5458   0.3478   H         1 1      0.0000
@<TRIPOS>BOND
     1     1     2   ar
     2     1     6   ar
     3     1    29    1
     4     2     3   ar
     5     2     7    1
     6     3     4   ar
     7     3    30    1
     8     4     5   ar
     9     4     8    1
    10     5     6   ar
    11     5     9    1
    12     6    10    1
    13     8    11    1
    14     8    12    1
    15     8    28    1
    16    11    13    1
    17    11    26    1
    18    11    27    1
    19    13    14    1
    20    14    15    1
    21    14    16    1
    22    14    31    1
    23    16    17    1
    24    16    20    2
    25    17    18    1
    26    17    19    1
    27    17    32    1
    28    20    21    1
    29    20    22    1
    30    22    23    1
    31    22    24    1
    32    22    25    1
    33    32    33    1
    34    32    34    1
    35    13    35    1
    36    35    36    1
    37    13    37    1
    38    32    38    1
    39    38    39    1
    40    38    40    1
    41    38    41    1
@<TRIPOS>SUBSTRUCTURE
     1 1           1 GROUP             0 ****  ****    0  
@<TRIPOS>MOLECULE
Molecule Name_00001_00073
    41    41     1     0     0
SMALL
NO_CHARGES
****
Generated from the CSD

@<TRIPOS>ATOM
     1 C5      -4.5936   0.1486   1.4850   C.ar      1 1      0.0000
     2 C4      -4.8244  -0.4246   0.2531   C.ar      1 1      0.0000
     3 C3      -3.7993  -0.5187  -0.6733   C.ar      1 1      0.0000
     4 C8      -2.5309  -0.0420  -0.3800   C.ar      1 1      0.0000
     5 C7      -2.3134   0.5333   0.8625   C.ar      1 1      0.0000
     6 C6      -3.3378   0.6279   1.7897   C.ar      1 1      0.0000
     7 H4      -5.8114  -0.8030   0.0086   H         1 1      0.0000
     8 C9      -1.4146  -0.1418  -1.3913   C.3       1 1      0.0000
     9 H7      -1.3285   0.9141   1.1117   H         1 1      0.0000
    10 H6      -3.1514   1.0803   2.7580   H         1 1      0.0000
    11 C10     -0.0939   0.4357  -0.8864   C.3       1 1      0.0000
    12 H9A     -1.2657  -1.1964  -1.6542   H         1 1      0.0000
    13 C11      1.0661   0.3611  -1.8661   C.3       1 1      0.0000
    14 C12      2.3446   0.9494  -1.2796   C.3       1 1      0.0000
    15 H12A     2.1486   1.9780  -0.9524   H         1 1      0.0000
    16 C13      2.8705   0.1599  -0.1196   C.2       1 1      0.0000
    17 C14      3.9638   0.7780   0.6992   C.3       1 1      0.0000
    18 H14B     4.6628   1.2885   0.0252   H         1 1      0.0000
    19 H14A     4.5203  -0.0139   1.2152   H         1 1      0.0000
    20 N        2.3715  -1.0247   0.1721   N.pl3     1 1      0.0000
    21 HN       1.5694  -1.3281  -0.3799   H         1 1      0.0000
    22 C        2.7578  -1.8816   1.2836   C.3       1 1      0.0000
    23 H1A      1.8979  -2.4271   1.6669   H         1 1      0.0000
    24 H1C      3.5060  -2.6063   0.9694   H         1 1      0.0000
    25 H1B      3.1767  -1.2938   2.0975   H         1 1      0.0000
    26 H10A    -0.2558   1.4882  -0.6225   H         1 1      0.0000
    27 H10B     0.1908  -0.0992   0.0281   H         1 1      0.0000
    28 H9B     -1.7117   0.3907  -2.3032   H         1 1      0.0000
    29 H5      -5.3964   0.2223   2.2112   H         1 1      0.0000
    30 H3      -3.9912  -0.9712  -1.6406   H         1 1      0.0000
    31 H12B     3.1123   0.9888  -2.0622   H         1 1      0.0000
    32 C15      3.4592   1.7754   1.7255   C.3       1 1      0.0000
    33 H15A     2.7577   1.2717   2.4020   H         1 1      0.0000
    34 H15C     2.9120   2.5751   1.2113   H         1 1      0.0000
    35 OH       1.2959  -1.0077  -2.2119   O.3       1 1      0.0000
    36 OH1      0.4869  -1.3802  -2.6416   H         1 1      0.0000
    37 H22      0.8012   0.9211  -2.7763   H         1 1      0.0000
    38 C16      4.5798   2.3834   2.5368   C.3       1 1      0.0000
    39 H16C     5.2810   2.9095   1.8924   H         1 1      0.0000
    40 H16A     4.1890   3.0931   3.2631   H         1 1      0.0000
    41 H16B     5.1273   1.6133   3.0762   H         1 1      0.0000
@<TRIPOS>BOND
     1     1     2   ar
     2     1     6   ar
     3     1    29    1
     4     2     3   ar
     5     2     7    1
     6     3     4   ar
     7     3    30    1
     8     4     5   ar
     9     4     8    1
    10     5     6   ar
    11     5     9    1
    12     6    10    1
    13     8    11    1
    14     8    12    1
    15     8    28    1
    16    11    13    1
    17    11    26    1
    18    11    27    1
    19    13    14    1
    20    14    15    1
    21    14    16    1
    22    14    31    1
    23    16    17    1
    24    16    20    2
    25    17    18    1
    26    17    19    1
    27    17    32    1
    28    20    21    1
    29    20    22    1
    30    22    23    1
    31    22    24    1
    32    22    25    1
    33    32    33    1
    34    32    34    1
    35    13    35    1
    36    35    36    1
    37    13    37    1
    38    32    38    1
    39    38    39    1
    40    38    40    1
    41    38    41    1
@<TRIPOS>SUBSTRUCTURE
     1 1           1 GROUP             0 ****  ****    0  
@<TRIPOS>MOLECULE
Molecule Name_00001_00074
    41    41     1     0     0
SMALL
NO_CHARGES
****
Generated from the CSD

@<TRIPOS>ATOM
     1 C5      -4.9166  -0.1968   1.2408   C.ar      1 1      0.0000
     2 C4      -5.0057  -0.6472  -0.0587   C.ar      1 1      0.0000
     3 C3      -3.9057  -0.5747  -0.8969   C.ar      1 1      0.0000
     4 C8      -2.7030  -0.0520  -0.4468   C.ar      1 1      0.0000
     5 C7      -2.6282   0.3984   0.8623   C.ar      1 1      0.0000
     6 C6      -3.7277   0.3263   1.7013   C.ar      1 1      0.0000
     7 H4      -5.9397  -1.0595  -0.4258   H         1 1      0.0000
     8 C9      -1.5051   0.0299  -1.3618   C.3       1 1      0.0000
     9 H7      -1.6968   0.8125   1.2340   H         1 1      0.0000
    10 H6      -3.6528   0.6824   2.7234   H         1 1      0.0000
    11 C10     -0.2747   0.6331  -0.6871   C.3       1 1      0.0000
    12 H9A     -1.2591  -0.9784  -1.7172   H         1 1      0.0000
    13 C11      0.9622   0.7394  -1.5644   C.3       1 1      0.0000
    14 C12      2.1433   1.3419  -0.8115   C.3       1 1      0.0000
    15 H12A     1.8471   2.3144  -0.3993   H         1 1      0.0000
    16 C13      2.6311   0.4672   0.3032   C.2       1 1      0.0000
    17 C14      3.6072   1.0622   1.2731   C.3       1 1      0.0000
    18 H14B     3.5380   0.5163   2.2220   H         1 1      0.0000
    19 H14A     3.3303   2.1051   1.4702   H         1 1      0.0000
    20 N        2.1982  -0.7716   0.4276   N.pl3     1 1      0.0000
    21 HN       1.4672  -1.0646  -0.2204   H         1 1      0.0000
    22 C        2.5559  -1.7169   1.4752   C.3       1 1      0.0000
    23 H1A      1.8244  -2.5200   1.5362   H         1 1      0.0000
    24 H1C      3.5298  -2.1602   1.2780   H         1 1      0.0000
    25 H1B      2.5987  -1.2231   2.4435   H         1 1      0.0000
    26 H10A    -0.5337   1.6382  -0.3321   H         1 1      0.0000
    27 H10B    -0.0258   0.0218   0.1892   H         1 1      0.0000
    28 H9B     -1.7664   0.6377  -2.2369   H         1 1      0.0000
    29 H5      -5.7782  -0.2537   1.8979   H         1 1      0.0000
    30 H3      -3.9861  -0.9313  -1.9184   H         1 1      0.0000
    31 H12B     2.9662   1.5147  -1.5161   H         1 1      0.0000
    32 C15      5.0443   1.0168   0.7877   C.3       1 1      0.0000
    33 H15A     5.1204   1.5596  -0.1626   H         1 1      0.0000
    34 H15C     5.3282  -0.0262   0.6006   H         1 1      0.0000
    35 OH       1.3184  -0.5665  -2.0269   O.3       1 1      0.0000
    36 OH1      0.5751  -0.9422  -2.5601   H         1 1      0.0000
    37 H22      0.7307   1.3761  -2.4323   H         1 1      0.0000
    38 C16      6.0074   1.6222   1.7825   C.3       1 1      0.0000
    39 H16C     5.9692   1.0887   2.7300   H         1 1      0.0000
    40 H16A     7.0280   1.5759   1.4084   H         1 1      0.0000
    41 H16B     5.7624   2.6653   1.9708   H         1 1      0.0000
@<TRIPOS>BOND
     1     1     2   ar
     2     1     6   ar
     3     1    29    1
     4     2     3   ar
     5     2     7    1
     6     3     4   ar
     7     3    30    1
     8     4     5   ar
     9     4     8    1
    10     5     6   ar
    11     5     9    1
    12     6    10    1
    13     8    11    1
    14     8    12    1
    15     8    28    1
    16    11    13    1
    17    11    26    1
    18    11    27    1
    19    13    14    1
    20    14    15    1
    21    14    16    1
    22    14    31    1
    23    16    17    1
    24    16    20    2
    25    17    18    1
    26    17    19    1
    27    17    32    1
    28    20    21    1
    29    20    22    1
    30    22    23    1
    31    22    24    1
    32    22    25    1
    33    32    33    1
    34    32    34    1
    35    13    35    1
    36    35    36    1
    37    13    37    1
    38    32    38    1
    39    38    39    1
    40    38    40    1
    41    38    41    1
@<TRIPOS>SUBSTRUCTURE
     1 1           1 GROUP             0 ****  ****    0  
@<TRIPOS>MOLECULE
Molecule Name_00001_00075
    41    41     1     0     0
SMALL
NO_CHARGES
****
Generated from the CSD

@<TRIPOS>ATOM
     1 C5      -5.4717   0.0320   0.8641   C.ar      1 1      0.0000
     2 C4      -4.7143   1.1173   1.2485   C.ar      1 1      0.0000
     3 C3      -3.4529   1.3108   0.7105   C.ar      1 1      0.0000
     4 C8      -2.9333   0.4228  -0.2188   C.ar      1 1      0.0000
     5 C7      -3.7057  -0.6651  -0.5953   C.ar      1 1      0.0000
     6 C6      -4.9672  -0.8595  -0.0579   C.ar      1 1      0.0000
     7 H4      -5.1070   1.8217   1.9743   H         1 1      0.0000
     8 C9      -1.5570   0.6323  -0.8026   C.3       1 1      0.0000
     9 H7      -3.3172  -1.3730  -1.3200   H         1 1      0.0000
    10 H6      -5.5597  -1.7156  -0.3633   H         1 1      0.0000
    11 C10     -0.4456   0.0153   0.0443   C.3       1 1      0.0000
    12 H9A     -1.5258   0.1930  -1.8073   H         1 1      0.0000
    13 C11      0.9630   0.1969  -0.4980   C.3       1 1      0.0000
    14 C12      2.0094  -0.4312   0.4159   C.3       1 1      0.0000
    15 H12A     1.8442  -1.5149   0.4584   H         1 1      0.0000
    16 C13      3.4130  -0.1688  -0.0390   C.2       1 1      0.0000
    17 C14      3.9561   1.2149   0.1560   C.3       1 1      0.0000
    18 H14B     3.1493   1.9376  -0.0177   H         1 1      0.0000
    19 H14A     4.7370   1.4048  -0.5906   H         1 1      0.0000
    20 N        4.1401  -1.1300  -0.5727   N.pl3     1 1      0.0000
    21 HN       3.7247  -2.0614  -0.5832   H         1 1      0.0000
    22 C        5.5206  -1.0283  -1.0230   C.3       1 1      0.0000
    23 H1A      6.0543  -1.9593  -0.8436   H         1 1      0.0000
    24 H1C      5.5635  -0.8134  -2.0887   H         1 1      0.0000
    25 H1B      6.0416  -0.2319  -0.4960   H         1 1      0.0000
    26 H10A    -0.4893   0.4584   1.0469   H         1 1      0.0000
    27 H10B    -0.6421  -1.0593   0.1437   H         1 1      0.0000
    28 H9B     -1.3731   1.7091  -0.9033   H         1 1      0.0000
    29 H5      -6.4601  -0.1198   1.2852   H         1 1      0.0000
    30 H3      -2.8641   2.1680   1.0200   H         1 1      0.0000
    31 H12B     1.8828  -0.0343   1.4307   H         1 1      0.0000
    32 C15      4.5306   1.4483   1.5410   C.3       1 1      0.0000
    33 H15A     5.0328   2.4233   1.5626   H         1 1      0.0000
    34 H15C     5.2840   0.6794   1.7523   H         1 1      0.0000
    35 OH       1.0456  -0.4093  -1.7909   O.3       1 1      0.0000
    36 OH1      0.3883   0.0137  -2.3967   H         1 1      0.0000
    37 H22      1.1730   1.2735  -0.5928   H         1 1      0.0000
    38 C16      3.4705   1.4131   2.6174   C.3       1 1      0.0000
    39 H16C     3.2020   0.3872   2.8608   H         1 1      0.0000
    40 H16A     3.8269   1.8947   3.5256   H         1 1      0.0000
    41 H16B     2.5711   1.9303   2.2900   H         1 1      0.0000
@<TRIPOS>BOND
     1     1     2   ar
     2     1     6   ar
     3     1    29    1
     4     2     3   ar
     5     2     7    1
     6     3     4   ar
     7     3    30    1
     8     4     5   ar
     9     4     8    1
    10     5     6   ar
    11     5     9    1
    12     6    10    1
    13     8    11    1
    14     8    12    1
    15     8    28    1
    16    11    13    1
    17    11    26    1
    18    11    27    1
    19    13    14    1
    20    14    15    1
    21    14    16    1
    22    14    31    1
    23    16    17    1
    24    16    20    2
    25    17    18    1
    26    17    19    1
    27    17    32    1
    28    20    21    1
    29    20    22    1
    30    22    23    1
    31    22    24    1
    32    22    25    1
    33    32    33    1
    34    32    34    1
    35    13    35    1
    36    35    36    1
    37    13    37    1
    38    32    38    1
    39    38    39    1
    40    38    40    1
    41    38    41    1
@<TRIPOS>SUBSTRUCTURE
     1 1           1 GROUP             0 ****  ****    0  
@<TRIPOS>MOLECULE
Molecule Name_00001_00076
    41    41     1     0     0
SMALL
NO_CHARGES
****
Generated from the CSD

@<TRIPOS>ATOM
     1 C5      -5.6132   0.0107   0.7597   C.ar      1 1      0.0000
     2 C4      -4.8884   1.1364   1.0864   C.ar      1 1      0.0000
     3 C3      -3.6167   1.3192   0.5693   C.ar      1 1      0.0000
     4 C8      -3.0540   0.3799  -0.2811   C.ar      1 1      0.0000
     5 C7      -3.7940  -0.7482  -0.6001   C.ar      1 1      0.0000
     6 C6      -5.0658  -0.9320  -0.0836   C.ar      1 1      0.0000
     7 H4      -5.3150   1.8811   1.7502   H         1 1      0.0000
     8 C9      -1.6665   0.5780  -0.8419   C.3       1 1      0.0000
     9 H7      -3.3716  -1.4964  -1.2628   H         1 1      0.0000
    10 H6      -5.6324  -1.8200  -0.3434   H         1 1      0.0000
    11 C10     -0.5669   0.0461   0.0751   C.3       1 1      0.0000
    12 H9A     -1.5988   0.0703  -1.8120   H         1 1      0.0000
    13 C11      0.8522   0.2199  -0.4416   C.3       1 1      0.0000
    14 C12      1.8852  -0.3199   0.5413   C.3       1 1      0.0000
    15 H12A     1.7404  -1.4013   0.6557   H         1 1      0.0000
    16 C13      3.2953  -0.0595   0.1060   C.2       1 1      0.0000
    17 C14      3.8087   1.3439   0.2268   C.3       1 1      0.0000
    18 H14B     3.0106   2.0372  -0.0662   H         1 1      0.0000
    19 H14A     4.6425   1.4848  -0.4717   H         1 1      0.0000
    20 N        4.0530  -1.0380  -0.3476   N.pl3     1 1      0.0000
    21 HN       3.6546  -1.9760  -0.3097   H         1 1      0.0000
    22 C        5.4429  -0.9381  -0.7688   C.3       1 1      0.0000
    23 H1A      5.9937  -1.8361  -0.4969   H         1 1      0.0000
    24 H1C      5.5106  -0.8128  -1.8475   H         1 1      0.0000
    25 H1B      5.9293  -0.0865  -0.2981   H         1 1      0.0000
    26 H10A    -0.6472   0.5570   1.0425   H         1 1      0.0000
    27 H10B    -0.7448  -1.0230   0.2448   H         1 1      0.0000
    28 H9B     -1.5013   1.6489  -1.0134   H         1 1      0.0000
    29 H5      -6.6096  -0.1328   1.1644   H         1 1      0.0000
    30 H3      -3.0538   2.2086   0.8330   H         1 1      0.0000
    31 H12B     1.7228   0.1441   1.5220   H         1 1      0.0000
    32 C15      4.2731   1.6984   1.6273   C.3       1 1      0.0000
    33 H15A     3.4512   1.5265   2.3332   H         1 1      0.0000
    34 H15C     4.5270   2.7650   1.6631   H         1 1      0.0000
    35 OH       0.9825  -0.4732  -1.6859   O.3       1 1      0.0000
    36 OH1      0.3394  -0.1027  -2.3395   H         1 1      0.0000
    37 H22      1.0433   1.2915  -0.6065   H         1 1      0.0000
    38 C16      5.4738   0.8881   2.0580   C.3       1 1      0.0000
    39 H16C     6.3134   1.0560   1.3867   H         1 1      0.0000
    40 H16A     5.7839   1.1629   3.0640   H         1 1      0.0000
    41 H16B     5.2434  -0.1753   2.0530   H         1 1      0.0000
@<TRIPOS>BOND
     1     1     2   ar
     2     1     6   ar
     3     1    29    1
     4     2     3   ar
     5     2     7    1
     6     3     4   ar
     7     3    30    1
     8     4     5   ar
     9     4     8    1
    10     5     6   ar
    11     5     9    1
    12     6    10    1
    13     8    11    1
    14     8    12    1
    15     8    28    1
    16    11    13    1
    17    11    26    1
    18    11    27    1
    19    13    14    1
    20    14    15    1
    21    14    16    1
    22    14    31    1
    23    16    17    1
    24    16    20    2
    25    17    18    1
    26    17    19    1
    27    17    32    1
    28    20    21    1
    29    20    22    1
    30    22    23    1
    31    22    24    1
    32    22    25    1
    33    32    33    1
    34    32    34    1
    35    13    35    1
    36    35    36    1
    37    13    37    1
    38    32    38    1
    39    38    39    1
    40    38    40    1
    41    38    41    1
@<TRIPOS>SUBSTRUCTURE
     1 1           1 GROUP             0 ****  ****    0  
@<TRIPOS>MOLECULE
Molecule Name_00001_00077
    41    41     1     0     0
SMALL
NO_CHARGES
****
Generated from the CSD

@<TRIPOS>ATOM
     1 C5      -5.5976  -0.1759   0.1402   C.ar      1 1      0.0000
     2 C4      -4.9094  -0.0298   1.3253   C.ar      1 1      0.0000
     3 C3      -3.5791   0.3553   1.3142   C.ar      1 1      0.0000
     4 C8      -2.9205   0.6000   0.1190   C.ar      1 1      0.0000
     5 C7      -3.6248   0.4480  -1.0654   C.ar      1 1      0.0000
     6 C6      -4.9551   0.0629  -1.0554   C.ar      1 1      0.0000
     7 H4      -5.4109  -0.2170   2.2690   H         1 1      0.0000
     8 C9      -1.4696   1.0166   0.1073   C.3       1 1      0.0000
     9 H7      -3.1277   0.6331  -2.0119   H         1 1      0.0000
    10 H6      -5.4926  -0.0511  -1.9910   H         1 1      0.0000
    11 C10     -0.5051  -0.1677   0.1131   C.3       1 1      0.0000
    12 H9A     -1.2814   1.6258  -0.7854   H         1 1      0.0000
    13 C11      0.9711   0.1951   0.1017   C.3       1 1      0.0000
    14 C12      1.8611  -1.0427   0.1275   C.3       1 1      0.0000
    15 H12A     1.6502  -1.6544  -0.7584   H         1 1      0.0000
    16 C13      3.3218  -0.7096   0.1543   C.2       1 1      0.0000
    17 C14      3.8961  -0.2198   1.4497   C.3       1 1      0.0000
    18 H14B     4.9461  -0.5317   1.5097   H         1 1      0.0000
    19 H14A     3.3622  -0.6927   2.2831   H         1 1      0.0000
    20 N        4.0685  -0.8620  -0.9212   N.pl3     1 1      0.0000
    21 HN       3.6171  -1.2865  -1.7312   H         1 1      0.0000
    22 C        5.4988  -0.6139  -1.0293   C.3       1 1      0.0000
    23 H1A      5.9257  -1.1739  -1.8588   H         1 1      0.0000
    24 H1C      5.6950   0.4429  -1.1976   H         1 1      0.0000
    25 H1B      6.0131  -0.9127  -0.1183   H         1 1      0.0000
    26 H10A    -0.7054  -0.7715   1.0068   H         1 1      0.0000
    27 H10B    -0.7153  -0.7897  -0.7658   H         1 1      0.0000
    28 H9B     -1.2718   1.6425   0.9862   H         1 1      0.0000
    29 H5      -6.6398  -0.4773   0.1485   H         1 1      0.0000
    30 H3      -3.0459   0.4669   2.2525   H         1 1      0.0000
    31 H12B     1.6151  -1.6419   1.0129   H         1 1      0.0000
    32 C15      3.8248   1.2875   1.6101   C.3       1 1      0.0000
    33 H15A     4.1682   1.5589   2.6160   H         1 1      0.0000
    34 H15C     2.7808   1.6106   1.5147   H         1 1      0.0000
    35 OH       1.2553   0.9518  -1.0783   O.3       1 1      0.0000
    36 OH1      0.7013   1.7710  -1.0868   H         1 1      0.0000
    37 H22      1.1939   0.8124   0.9857   H         1 1      0.0000
    38 C16      4.6649   2.0157   0.5866   C.3       1 1      0.0000
    39 H16C     4.3320   1.7819  -0.4225   H         1 1      0.0000
    40 H16A     4.5947   3.0925   0.7256   H         1 1      0.0000
    41 H16B     5.7113   1.7303   0.6729   H         1 1      0.0000
@<TRIPOS>BOND
     1     1     2   ar
     2     1     6   ar
     3     1    29    1
     4     2     3   ar
     5     2     7    1
     6     3     4   ar
     7     3    30    1
     8     4     5   ar
     9     4     8    1
    10     5     6   ar
    11     5     9    1
    12     6    10    1
    13     8    11    1
    14     8    12    1
    15     8    28    1
    16    11    13    1
    17    11    26    1
    18    11    27    1
    19    13    14    1
    20    14    15    1
    21    14    16    1
    22    14    31    1
    23    16    17    1
    24    16    20    2
    25    17    18    1
    26    17    19    1
    27    17    32    1
    28    20    21    1
    29    20    22    1
    30    22    23    1
    31    22    24    1
    32    22    25    1
    33    32    33    1
    34    32    34    1
    35    13    35    1
    36    35    36    1
    37    13    37    1
    38    32    38    1
    39    38    39    1
    40    38    40    1
    41    38    41    1
@<TRIPOS>SUBSTRUCTURE
     1 1           1 GROUP             0 ****  ****    0  
@<TRIPOS>MOLECULE
Molecule Name_00001_00078
    41    41     1     0     0
SMALL
NO_CHARGES
****
Generated from the CSD

@<TRIPOS>ATOM
     1 C5      -5.6363   0.5813  -0.4917   C.ar      1 1      0.0000
     2 C4      -4.9785  -0.4467  -1.1319   C.ar      1 1      0.0000
     3 C3      -3.7094  -0.8216  -0.7234   C.ar      1 1      0.0000
     4 C8      -3.0824  -0.1745   0.3303   C.ar      1 1      0.0000
     5 C7      -3.7554   0.8586   0.9643   C.ar      1 1      0.0000
     6 C6      -5.0245   1.2343   0.5565   C.ar      1 1      0.0000
     7 H4      -5.4559  -0.9634  -1.9579   H         1 1      0.0000
     8 C9      -1.6978  -0.5813   0.7733   C.3       1 1      0.0000
     9 H7      -3.2820   1.3792   1.7902   H         1 1      0.0000
    10 H6      -5.5383   2.0444   1.0634   H         1 1      0.0000
    11 C10     -0.5878   0.1269  -0.0009   C.3       1 1      0.0000
    12 H9A     -1.5860  -0.3585   1.8416   H         1 1      0.0000
    13 C11      0.8289  -0.2461   0.4050   C.3       1 1      0.0000
    14 C12      1.8718   0.4905  -0.4284   C.3       1 1      0.0000
    15 H12A     1.8171   1.5630  -0.2048   H         1 1      0.0000
    16 C13      3.2677   0.0090  -0.1731   C.2       1 1      0.0000
    17 C14      3.9374   0.4662   1.0880   C.3       1 1      0.0000
    18 H14B     4.7163  -0.2584   1.3557   H         1 1      0.0000
    19 H14A     3.2031   0.4791   1.9026   H         1 1      0.0000
    20 N        3.8684  -0.8001  -1.0227   N.pl3     1 1      0.0000
    21 HN       3.3074  -1.1337  -1.8063   H         1 1      0.0000
    22 C        5.2000  -1.3720  -0.8859   C.3       1 1      0.0000
    23 H1A      5.3116  -2.2462  -1.5240   H         1 1      0.0000
    24 H1C      5.9613  -0.6476  -1.1677   H         1 1      0.0000
    25 H1B      5.3865  -1.6764   0.1417   H         1 1      0.0000
    26 H10A    -0.7123  -0.0991  -1.0671   H         1 1      0.0000
    27 H10B    -0.7113   1.2092   0.1290   H         1 1      0.0000
    28 H9B     -1.5870  -1.6651   0.6449   H         1 1      0.0000
    29 H5      -6.6306   0.8752  -0.8114   H         1 1      0.0000
    30 H3      -3.1996  -1.6317  -1.2342   H         1 1      0.0000
    31 H12B     1.6377   0.3590  -1.4921   H         1 1      0.0000
    32 C15      4.5692   1.8411   0.9716   C.3       1 1      0.0000
    33 H15A     4.9384   2.1519   1.9567   H         1 1      0.0000
    34 H15C     3.8049   2.5629   0.6580   H         1 1      0.0000
    35 OH       1.0181   0.0781   1.7852   O.3       1 1      0.0000
    36 OH1      0.3620  -0.4182   2.3341   H         1 1      0.0000
    37 H22      0.9654  -1.3301   0.2695   H         1 1      0.0000
    38 C16      5.7120   1.8678  -0.0168   C.3       1 1      0.0000
    39 H16C     5.3696   1.5842  -1.0099   H         1 1      0.0000
    40 H16A     6.1448   2.8640  -0.0792   H         1 1      0.0000
    41 H16B     6.4964   1.1755   0.2818   H         1 1      0.0000
@<TRIPOS>BOND
     1     1     2   ar
     2     1     6   ar
     3     1    29    1
     4     2     3   ar
     5     2     7    1
     6     3     4   ar
     7     3    30    1
     8     4     5   ar
     9     4     8    1
    10     5     6   ar
    11     5     9    1
    12     6    10    1
    13     8    11    1
    14     8    12    1
    15     8    28    1
    16    11    13    1
    17    11    26    1
    18    11    27    1
    19    13    14    1
    20    14    15    1
    21    14    16    1
    22    14    31    1
    23    16    17    1
    24    16    20    2
    25    17    18    1
    26    17    19    1
    27    17    32    1
    28    20    21    1
    29    20    22    1
    30    22    23    1
    31    22    24    1
    32    22    25    1
    33    32    33    1
    34    32    34    1
    35    13    35    1
    36    35    36    1
    37    13    37    1
    38    32    38    1
    39    38    39    1
    40    38    40    1
    41    38    41    1
@<TRIPOS>SUBSTRUCTURE
     1 1           1 GROUP             0 ****  ****    0  
@<TRIPOS>MOLECULE
Molecule Name_00001_00079
    41    41     1     0     0
SMALL
NO_CHARGES
****
Generated from the CSD

@<TRIPOS>ATOM
     1 C5      -5.5247   0.6923  -0.3486   C.ar      1 1      0.0000
     2 C4      -4.9109  -0.3074  -1.0719   C.ar      1 1      0.0000
     3 C3      -3.6410  -0.7377  -0.7249   C.ar      1 1      0.0000
     4 C8      -2.9694  -0.1749   0.3495   C.ar      1 1      0.0000
     5 C7      -3.5984   0.8306   1.0673   C.ar      1 1      0.0000
     6 C6      -4.8682   1.2616   0.7211   C.ar      1 1      0.0000
     7 H4      -5.4236  -0.7584  -1.9151   H         1 1      0.0000
     8 C9      -1.5839  -0.6419   0.7254   C.3       1 1      0.0000
     9 H7      -3.0896   1.2855   1.9108   H         1 1      0.0000
    10 H6      -5.3473   2.0492   1.2933   H         1 1      0.0000
    11 C10     -0.4779   0.0885  -0.0337   C.3       1 1      0.0000
    12 H9A     -1.4374  -0.4913   1.8021   H         1 1      0.0000
    13 C11      0.9395  -0.3432   0.3066   C.3       1 1      0.0000
    14 C12      1.9776   0.4210  -0.5078   C.3       1 1      0.0000
    15 H12A     1.9543   1.4783  -0.2165   H         1 1      0.0000
    16 C13      3.3678  -0.1064  -0.3213   C.2       1 1      0.0000
    17 C14      4.0819   0.2583   0.9455   C.3       1 1      0.0000
    18 H14B     4.8113  -0.5277   1.1773   H         1 1      0.0000
    19 H14A     3.3595   0.2930   1.7701   H         1 1      0.0000
    20 N        3.9258  -0.8757  -1.2346   N.pl3     1 1      0.0000
    21 HN       3.3361  -1.1484  -2.0208   H         1 1      0.0000
    22 C        5.2464  -1.4847  -1.1701   C.3       1 1      0.0000
    23 H1A      5.3115  -2.3365  -1.8439   H         1 1      0.0000
    24 H1C      6.0150  -0.7689  -1.4539   H         1 1      0.0000
    25 H1B      5.4631  -1.8323  -0.1623   H         1 1      0.0000
    26 H10A    -0.6371  -0.0652  -1.1081   H         1 1      0.0000
    27 H10B    -0.5703   1.1627   0.1687   H         1 1      0.0000
    28 H9B     -1.5042  -1.7175   0.5249   H         1 1      0.0000
    29 H5      -6.5197   1.0294  -0.6200   H         1 1      0.0000
    30 H3      -3.1661  -1.5249  -1.3009   H         1 1      0.0000
    31 H12B     1.7128   0.3618  -1.5707   H         1 1      0.0000
    32 C15      4.8067   1.5892   0.8682   C.3       1 1      0.0000
    33 H15A     5.4890   1.5780   0.0093   H         1 1      0.0000
    34 H15C     5.4113   1.7229   1.7738   H         1 1      0.0000
    35 OH       1.1744  -0.1134   1.6987   O.3       1 1      0.0000
    36 OH1      0.5215  -0.6290   2.2334   H         1 1      0.0000
    37 H22      1.0448  -1.4191   0.0981   H         1 1      0.0000
    38 C16      3.8557   2.7555   0.7301   C.3       1 1      0.0000
    39 H16C     3.0252   2.6605   1.4266   H         1 1      0.0000
    40 H16A     4.3648   3.6948   0.9359   H         1 1      0.0000
    41 H16B     3.4488   2.8042  -0.2777   H         1 1      0.0000
@<TRIPOS>BOND
     1     1     2   ar
     2     1     6   ar
     3     1    29    1
     4     2     3   ar
     5     2     7    1
     6     3     4   ar
     7     3    30    1
     8     4     5   ar
     9     4     8    1
    10     5     6   ar
    11     5     9    1
    12     6    10    1
    13     8    11    1
    14     8    12    1
    15     8    28    1
    16    11    13    1
    17    11    26    1
    18    11    27    1
    19    13    14    1
    20    14    15    1
    21    14    16    1
    22    14    31    1
    23    16    17    1
    24    16    20    2
    25    17    18    1
    26    17    19    1
    27    17    32    1
    28    20    21    1
    29    20    22    1
    30    22    23    1
    31    22    24    1
    32    22    25    1
    33    32    33    1
    34    32    34    1
    35    13    35    1
    36    35    36    1
    37    13    37    1
    38    32    38    1
    39    38    39    1
    40    38    40    1
    41    38    41    1
@<TRIPOS>SUBSTRUCTURE
     1 1           1 GROUP             0 ****  ****    0  
@<TRIPOS>MOLECULE
Molecule Name_00001_00080
    41    41     1     0     0
SMALL
NO_CHARGES
****
Generated from the CSD

@<TRIPOS>ATOM
     1 C5      -3.8864   1.9647  -0.3847   C.ar      1 1      0.0000
     2 C4      -3.0642   1.3012  -1.2697   C.ar      1 1      0.0000
     3 C3      -2.4402   0.1243  -0.8908   C.ar      1 1      0.0000
     4 C8      -2.6308  -0.4045   0.3766   C.ar      1 1      0.0000
     5 C7      -3.4595   0.2741   1.2567   C.ar      1 1      0.0000
     6 C6      -4.0840   1.4511   0.8788   C.ar      1 1      0.0000
     7 H4      -2.9053   1.7018  -2.2654   H         1 1      0.0000
     8 C9      -1.9479  -1.6857   0.7902   C.3       1 1      0.0000
     9 H7      -3.6209  -0.1218   2.2540   H         1 1      0.0000
    10 H6      -4.7301   1.9701   1.5791   H         1 1      0.0000
    11 C10     -0.5486  -1.4627   1.3607   C.3       1 1      0.0000
    12 H9A     -2.5645  -2.1903   1.5442   H         1 1      0.0000
    13 C11      0.4960  -0.9971   0.3592   C.3       1 1      0.0000
    14 C12      1.8557  -0.7817   1.0146   C.3       1 1      0.0000
    15 H12A     2.2222  -1.7398   1.4033   H         1 1      0.0000
    16 C13      2.8737  -0.2158   0.0718   C.2       1 1      0.0000
    17 C14      2.7438   1.2309  -0.2999   C.3       1 1      0.0000
    18 H14B     1.6812   1.4642  -0.4404   H         1 1      0.0000
    19 H14A     3.2503   1.4047  -1.2571   H         1 1      0.0000
    20 N        3.8530  -0.9655  -0.3934   N.pl3     1 1      0.0000
    21 HN       3.9188  -1.9113  -0.0175   H         1 1      0.0000
    22 C        4.9259  -0.5424  -1.2816   C.3       1 1      0.0000
    23 H1A      5.8507  -1.0645  -1.0452   H         1 1      0.0000
    24 H1C      4.6734  -0.7535  -2.3186   H         1 1      0.0000
    25 H1B      5.1065   0.5263  -1.1880   H         1 1      0.0000
    26 H10A    -0.6172  -0.7154   2.1608   H         1 1      0.0000
    27 H10B    -0.2036  -2.4028   1.8087   H         1 1      0.0000
    28 H9B     -1.8768  -2.3486  -0.0809   H         1 1      0.0000
    29 H5      -4.3756   2.8866  -0.6813   H         1 1      0.0000
    30 H3      -1.7943  -0.3903  -1.5945   H         1 1      0.0000
    31 H12B     1.7387  -0.0992   1.8655   H         1 1      0.0000
    32 C15      3.3174   2.1752   0.7403   C.3       1 1      0.0000
    33 H15A     4.3800   1.9460   0.8873   H         1 1      0.0000
    34 H15C     2.8047   2.0119   1.6963   H         1 1      0.0000
    35 OH       0.6233  -1.9805  -0.6716   O.3       1 1      0.0000
    36 OH1     -0.2360  -2.0674  -1.1533   H         1 1      0.0000
    37 H22      0.1625  -0.0486  -0.0895   H         1 1      0.0000
    38 C16      3.1740   3.6260   0.3421   C.3       1 1      0.0000
    39 H16C     2.1263   3.8880   0.2103   H         1 1      0.0000
    40 H16A     3.5932   4.2786   1.1051   H         1 1      0.0000
    41 H16B     3.6928   3.8221  -0.5939   H         1 1      0.0000
@<TRIPOS>BOND
     1     1     2   ar
     2     1     6   ar
     3     1    29    1
     4     2     3   ar
     5     2     7    1
     6     3     4   ar
     7     3    30    1
     8     4     5   ar
     9     4     8    1
    10     5     6   ar
    11     5     9    1
    12     6    10    1
    13     8    11    1
    14     8    12    1
    15     8    28    1
    16    11    13    1
    17    11    26    1
    18    11    27    1
    19    13    14    1
    20    14    15    1
    21    14    16    1
    22    14    31    1
    23    16    17    1
    24    16    20    2
    25    17    18    1
    26    17    19    1
    27    17    32    1
    28    20    21    1
    29    20    22    1
    30    22    23    1
    31    22    24    1
    32    22    25    1
    33    32    33    1
    34    32    34    1
    35    13    35    1
    36    35    36    1
    37    13    37    1
    38    32    38    1
    39    38    39    1
    40    38    40    1
    41    38    41    1
@<TRIPOS>SUBSTRUCTURE
     1 1           1 GROUP             0 ****  ****    0  
@<TRIPOS>MOLECULE
Molecule Name_00001_00081
    41    41     1     0     0
SMALL
NO_CHARGES
****
Generated from the CSD

@<TRIPOS>ATOM
     1 C5      -3.7048   2.1300   0.4469   C.ar      1 1      0.0000
     2 C4      -2.7723   1.9571  -0.5530   C.ar      1 1      0.0000
     3 C3      -2.1841   0.7187  -0.7490   C.ar      1 1      0.0000
     4 C8      -2.5211  -0.3622   0.0511   C.ar      1 1      0.0000
     5 C7      -3.4598  -0.1735   1.0539   C.ar      1 1      0.0000
     6 C6      -4.0485   1.0645   1.2506   C.ar      1 1      0.0000
     7 H4      -2.4982   2.7931  -1.1880   H         1 1      0.0000
     8 C9      -1.8774  -1.7111  -0.1607   C.3       1 1      0.0000
     9 H7      -3.7366  -1.0059   1.6923   H         1 1      0.0000
    10 H6      -4.7819   1.1959   2.0394   H         1 1      0.0000
    11 C10     -0.5612  -1.8737   0.5971   C.3       1 1      0.0000
    12 H9A     -2.5749  -2.4933   0.1635   H         1 1      0.0000
    13 C11      0.5917  -1.0231   0.0889   C.3       1 1      0.0000
    14 C12      1.8584  -1.2325   0.9113   C.3       1 1      0.0000
    15 H12A     2.1574  -2.2861   0.8472   H         1 1      0.0000
    16 C13      2.9980  -0.3730   0.4551   C.2       1 1      0.0000
    17 C14      2.9599   1.0796   0.8241   C.3       1 1      0.0000
    18 H14B     3.9894   1.4425   0.9326   H         1 1      0.0000
    19 H14A     2.4650   1.1923   1.7965   H         1 1      0.0000
    20 N        4.0000  -0.8882  -0.2289   N.pl3     1 1      0.0000
    21 HN       3.9904  -1.9001  -0.3563   H         1 1      0.0000
    22 C        5.1830  -0.1843  -0.7023   C.3       1 1      0.0000
    23 H1A      5.9885  -0.8840  -0.9157   H         1 1      0.0000
    24 H1C      4.9638   0.3680  -1.6137   H         1 1      0.0000
    25 H1B      5.5371   0.5227   0.0449   H         1 1      0.0000
    26 H10A    -0.7365  -1.6237   1.6508   H         1 1      0.0000
    27 H10B    -0.2614  -2.9278   0.5480   H         1 1      0.0000
    28 H9B     -1.6920  -1.8527  -1.2326   H         1 1      0.0000
    29 H5      -4.1660   3.1000   0.6006   H         1 1      0.0000
    30 H3      -1.4506   0.5929  -1.5385   H         1 1      0.0000
    31 H12B     1.6426  -1.0104   1.9637   H         1 1      0.0000
    32 C15      2.2431   1.9433  -0.1972   C.3       1 1      0.0000
    33 H15A     1.2076   1.5957  -0.2989   H         1 1      0.0000
    34 H15C     2.7318   1.8278  -1.1725   H         1 1      0.0000
    35 OH       0.8566  -1.3650  -1.2745   O.3       1 1      0.0000
    36 OH1      0.0715  -1.1366  -1.8309   H         1 1      0.0000
    37 H22      0.3034   0.0381   0.1428   H         1 1      0.0000
    38 C16      2.2397   3.4051   0.1859   C.3       1 1      0.0000
    39 H16C     3.2561   3.7834   0.2728   H         1 1      0.0000
    40 H16A     1.7199   3.9989  -0.5631   H         1 1      0.0000
    41 H16B     1.7405   3.5522   1.1413   H         1 1      0.0000
@<TRIPOS>BOND
     1     1     2   ar
     2     1     6   ar
     3     1    29    1
     4     2     3   ar
     5     2     7    1
     6     3     4   ar
     7     3    30    1
     8     4     5   ar
     9     4     8    1
    10     5     6   ar
    11     5     9    1
    12     6    10    1
    13     8    11    1
    14     8    12    1
    15     8    28    1
    16    11    13    1
    17    11    26    1
    18    11    27    1
    19    13    14    1
    20    14    15    1
    21    14    16    1
    22    14    31    1
    23    16    17    1
    24    16    20    2
    25    17    18    1
    26    17    19    1
    27    17    32    1
    28    20    21    1
    29    20    22    1
    30    22    23    1
    31    22    24    1
    32    22    25    1
    33    32    33    1
    34    32    34    1
    35    13    35    1
    36    35    36    1
    37    13    37    1
    38    32    38    1
    39    38    39    1
    40    38    40    1
    41    38    41    1
@<TRIPOS>SUBSTRUCTURE
     1 1           1 GROUP             0 ****  ****    0  
@<TRIPOS>MOLECULE
Molecule Name_00001_00082
    41    41     1     0     0
SMALL
NO_CHARGES
****
Generated from the CSD

@<TRIPOS>ATOM
     1 C5      -4.3016  -1.5357   0.2296   C.ar      1 1      0.0000
     2 C4      -3.3553  -1.2320   1.1844   C.ar      1 1      0.0000
     3 C3      -2.5851  -0.0877   1.0610   C.ar      1 1      0.0000
     4 C8      -2.7516   0.7676  -0.0174   C.ar      1 1      0.0000
     5 C7      -3.7064   0.4490  -0.9708   C.ar      1 1      0.0000
     6 C6      -4.4771  -0.6951  -0.8483   C.ar      1 1      0.0000
     7 H4      -3.2133  -1.8910   2.0346   H         1 1      0.0000
     8 C9      -1.9097   2.0132  -0.1532   C.3       1 1      0.0000
     9 H7      -3.8517   1.1042  -1.8234   H         1 1      0.0000
    10 H6      -5.2207  -0.9302  -1.6027   H         1 1      0.0000
    11 C10     -0.5828   1.7657  -0.8683   C.3       1 1      0.0000
    12 H9A     -2.4788   2.7689  -0.7085   H         1 1      0.0000
    13 C11      0.4258   0.9292  -0.0975   C.3       1 1      0.0000
    14 C12      1.7109   0.7156  -0.8897   C.3       1 1      0.0000
    15 H12A     2.2206   1.6792  -1.0125   H         1 1      0.0000
    16 C13      2.6472  -0.2515  -0.2312   C.2       1 1      0.0000
    17 C14      3.4399   0.2424   0.9416   C.3       1 1      0.0000
    18 H14B     3.7228  -0.6168   1.5623   H         1 1      0.0000
    19 H14A     2.8090   0.8991   1.5530   H         1 1      0.0000
    20 N        2.7493  -1.4925  -0.6635   N.pl3     1 1      0.0000
    21 HN       2.1074  -1.7691  -1.4062   H         1 1      0.0000
    22 C        3.5852  -2.5434  -0.1014   C.3       1 1      0.0000
    23 H1A      3.2318  -3.5246  -0.4116   H         1 1      0.0000
    24 H1C      4.6159  -2.4344  -0.4325   H         1 1      0.0000
    25 H1B      3.5733  -2.5070   0.9858   H         1 1      0.0000
    26 H10A    -0.7925   1.2631  -1.8205   H         1 1      0.0000
    27 H10B    -0.1255   2.7367  -1.0952   H         1 1      0.0000
    28 H9B     -1.7065   2.4165   0.8466   H         1 1      0.0000
    29 H5      -4.9054  -2.4320   0.3261   H         1 1      0.0000
    30 H3      -1.8422   0.1424   1.8176   H         1 1      0.0000
    31 H12B     1.4571   0.3425  -1.8896   H         1 1      0.0000
    32 C15      4.6974   0.9943   0.5467   C.3       1 1      0.0000
    33 H15A     4.4218   1.8541  -0.0762   H         1 1      0.0000
    34 H15C     5.3361   0.3362  -0.0554   H         1 1      0.0000
    35 OH       0.7374   1.5914   1.1313   O.3       1 1      0.0000
    36 OH1     -0.0765   1.6518   1.6898   H         1 1      0.0000
    37 H22     -0.0213  -0.0515   0.1272   H         1 1      0.0000
    38 C16      5.4777   1.4811   1.7459   C.3       1 1      0.0000
    39 H16C     5.7837   0.6455   2.3720   H         1 1      0.0000
    40 H16A     6.3721   2.0156   1.4330   H         1 1      0.0000
    41 H16B     4.8745   2.1548   2.3509   H         1 1      0.0000
@<TRIPOS>BOND
     1     1     2   ar
     2     1     6   ar
     3     1    29    1
     4     2     3   ar
     5     2     7    1
     6     3     4   ar
     7     3    30    1
     8     4     5   ar
     9     4     8    1
    10     5     6   ar
    11     5     9    1
    12     6    10    1
    13     8    11    1
    14     8    12    1
    15     8    28    1
    16    11    13    1
    17    11    26    1
    18    11    27    1
    19    13    14    1
    20    14    15    1
    21    14    16    1
    22    14    31    1
    23    16    17    1
    24    16    20    2
    25    17    18    1
    26    17    19    1
    27    17    32    1
    28    20    21    1
    29    20    22    1
    30    22    23    1
    31    22    24    1
    32    22    25    1
    33    32    33    1
    34    32    34    1
    35    13    35    1
    36    35    36    1
    37    13    37    1
    38    32    38    1
    39    38    39    1
    40    38    40    1
    41    38    41    1
@<TRIPOS>SUBSTRUCTURE
     1 1           1 GROUP             0 ****  ****    0  
@<TRIPOS>MOLECULE
Molecule Name_00001_00083
    41    41     1     0     0
SMALL
NO_CHARGES
****
Generated from the CSD

@<TRIPOS>ATOM
     1 C5      -3.0439   2.0460  -0.7006   C.ar      1 1      0.0000
     2 C4      -2.6768   1.0734  -1.6054   C.ar      1 1      0.0000
     3 C3      -2.3280  -0.1919  -1.1633   C.ar      1 1      0.0000
     4 C8      -2.3424  -0.5010   0.1881   C.ar      1 1      0.0000
     5 C7      -2.7124   0.4874   1.0870   C.ar      1 1      0.0000
     6 C6      -3.0615   1.7530   0.6460   C.ar      1 1      0.0000
     7 H4      -2.6611   1.2995  -2.6665   H         1 1      0.0000
     8 C9      -1.9589  -1.8793   0.6698   C.3       1 1      0.0000
     9 H7      -2.7288   0.2668   2.1492   H         1 1      0.0000
    10 H6      -3.3494   2.5155   1.3621   H         1 1      0.0000
    11 C10     -0.7387  -1.8760   1.5886   C.3       1 1      0.0000
    12 H9A     -2.8089  -2.3180   1.2069   H         1 1      0.0000
    13 C11      0.5938  -1.6286   0.9000   C.3       1 1      0.0000
    14 C12      0.7802  -0.1605   0.5330   C.3       1 1      0.0000
    15 H12A     0.7798   0.4412   1.4503   H         1 1      0.0000
    16 C13      2.0514   0.0954  -0.2181   C.2       1 1      0.0000
    17 C14      2.3500   1.5112  -0.6107   C.3       1 1      0.0000
    18 H14B     1.4184   1.9903  -0.9362   H         1 1      0.0000
    19 H14A     3.0384   1.5116  -1.4647   H         1 1      0.0000
    20 N        2.8777  -0.8915  -0.5022   N.pl3     1 1      0.0000
    21 HN       2.6417  -1.8063  -0.1180   H         1 1      0.0000
    22 C        4.1564  -0.7848  -1.1895   C.3       1 1      0.0000
    23 H1A      4.8686  -1.5055  -0.7930   H         1 1      0.0000
    24 H1C      4.0387  -0.9754  -2.2542   H         1 1      0.0000
    25 H1B      4.5785   0.2105  -1.0686   H         1 1      0.0000
    26 H10A    -0.8828  -1.1005   2.3509   H         1 1      0.0000
    27 H10B    -0.6887  -2.8447   2.1010   H         1 1      0.0000
    28 H9B     -1.7495  -2.5148  -0.1995   H         1 1      0.0000
    29 H5      -3.3175   3.0373  -1.0466   H         1 1      0.0000
    30 H3      -2.0399  -0.9505  -1.8835   H         1 1      0.0000
    31 H12B    -0.0688   0.1656  -0.0803   H         1 1      0.0000
    32 C15      2.9557   2.3339   0.5115   C.3       1 1      0.0000
    33 H15A     3.8873   1.8590   0.8433   H         1 1      0.0000
    34 H15C     2.2643   2.3451   1.3631   H         1 1      0.0000
    35 OH       1.6515  -2.0308   1.7749   O.3       1 1      0.0000
    36 OH1      1.5497  -2.9889   1.9977   H         1 1      0.0000
    37 H22      0.6388  -2.2339  -0.0186   H         1 1      0.0000
    38 C16      3.2470   3.7557   0.0904   C.3       1 1      0.0000
    39 H16C     2.3353   4.2593  -0.2239   H         1 1      0.0000
    40 H16A     3.6798   4.3206   0.9134   H         1 1      0.0000
    41 H16B     3.9490   3.7757  -0.7406   H         1 1      0.0000
@<TRIPOS>BOND
     1     1     2   ar
     2     1     6   ar
     3     1    29    1
     4     2     3   ar
     5     2     7    1
     6     3     4   ar
     7     3    30    1
     8     4     5   ar
     9     4     8    1
    10     5     6   ar
    11     5     9    1
    12     6    10    1
    13     8    11    1
    14     8    12    1
    15     8    28    1
    16    11    13    1
    17    11    26    1
    18    11    27    1
    19    13    14    1
    20    14    15    1
    21    14    16    1
    22    14    31    1
    23    16    17    1
    24    16    20    2
    25    17    18    1
    26    17    19    1
    27    17    32    1
    28    20    21    1
    29    20    22    1
    30    22    23    1
    31    22    24    1
    32    22    25    1
    33    32    33    1
    34    32    34    1
    35    13    35    1
    36    35    36    1
    37    13    37    1
    38    32    38    1
    39    38    39    1
    40    38    40    1
    41    38    41    1
@<TRIPOS>SUBSTRUCTURE
     1 1           1 GROUP             0 ****  ****    0  
@<TRIPOS>MOLECULE
Molecule Name_00001_00084
    41    41     1     0     0
SMALL
NO_CHARGES
****
Generated from the CSD

@<TRIPOS>ATOM
     1 C5      -2.7950   2.3003  -0.0550   C.ar      1 1      0.0000
     2 C4      -2.3202   1.6910  -1.1963   C.ar      1 1      0.0000
     3 C3      -2.0341   0.3360  -1.1938   C.ar      1 1      0.0000
     4 C8      -2.2198  -0.4270  -0.0512   C.ar      1 1      0.0000
     5 C7      -2.6968   0.1994   1.0899   C.ar      1 1      0.0000
     6 C6      -2.9831   1.5544   1.0885   C.ar      1 1      0.0000
     7 H4      -2.1701   2.2743  -2.0988   H         1 1      0.0000
     8 C9      -1.9048  -1.9033  -0.0480   C.3       1 1      0.0000
     9 H7      -2.8476  -0.3792   1.9953   H         1 1      0.0000
    10 H6      -3.3563   2.0297   1.9896   H         1 1      0.0000
    11 C10     -0.8101  -2.2812   0.9479   C.3       1 1      0.0000
    12 H9A     -2.8172  -2.4615   0.1957   H         1 1      0.0000
    13 C11      0.5995  -1.8717   0.5522   C.3       1 1      0.0000
    14 C12      0.8356  -0.3790   0.7538   C.3       1 1      0.0000
    15 H12A     0.7216  -0.1385   1.8180   H         1 1      0.0000
    16 C13      2.1922   0.0633   0.2958   C.2       1 1      0.0000
    17 C14      2.5427   1.5108   0.4682   C.3       1 1      0.0000
    18 H14B     3.6346   1.6055   0.5151   H         1 1      0.0000
    19 H14A     2.1380   1.8692   1.4226   H         1 1      0.0000
    20 N        3.0442  -0.7993  -0.2212   N.pl3     1 1      0.0000
    21 HN       2.7586  -1.7783  -0.2165   H         1 1      0.0000
    22 C        4.3998  -0.5193  -0.6719   C.3       1 1      0.0000
    23 H1A      4.9859  -1.4345  -0.7232   H         1 1      0.0000
    24 H1C      4.3911  -0.0666  -1.6612   H         1 1      0.0000
    25 H1B      4.9000   0.1658   0.0093   H         1 1      0.0000
    26 H10A    -1.0464  -1.8168   1.9132   H         1 1      0.0000
    27 H10B    -0.8283  -3.3694   1.0859   H         1 1      0.0000
    28 H9B     -1.5896  -2.2023  -1.0553   H         1 1      0.0000
    29 H5      -3.0194   3.3619  -0.0566   H         1 1      0.0000
    30 H3      -1.6602  -0.1343  -2.0973   H         1 1      0.0000
    31 H12B     0.0717   0.1820   0.2012   H         1 1      0.0000
    32 C15      2.0238   2.3949  -0.6507   C.3       1 1      0.0000
    33 H15A     0.9320   2.3035  -0.7046   H         1 1      0.0000
    34 H15C     2.4361   2.0461  -1.6056   H         1 1      0.0000
    35 OH       1.5371  -2.6056   1.3447   O.3       1 1      0.0000
    36 OH1      1.4048  -3.5749   1.2000   H         1 1      0.0000
    37 H22      0.7578  -2.1173  -0.5093   H         1 1      0.0000
    38 C16      2.3901   3.8477  -0.4535   C.3       1 1      0.0000
    39 H16C     3.4705   3.9717  -0.4181   H         1 1      0.0000
    40 H16A     2.0057   4.4566  -1.2691   H         1 1      0.0000
    41 H16B     1.9747   4.2272   0.4778   H         1 1      0.0000
@<TRIPOS>BOND
     1     1     2   ar
     2     1     6   ar
     3     1    29    1
     4     2     3   ar
     5     2     7    1
     6     3     4   ar
     7     3    30    1
     8     4     5   ar
     9     4     8    1
    10     5     6   ar
    11     5     9    1
    12     6    10    1
    13     8    11    1
    14     8    12    1
    15     8    28    1
    16    11    13    1
    17    11    26    1
    18    11    27    1
    19    13    14    1
    20    14    15    1
    21    14    16    1
    22    14    31    1
    23    16    17    1
    24    16    20    2
    25    17    18    1
    26    17    19    1
    27    17    32    1
    28    20    21    1
    29    20    22    1
    30    22    23    1
    31    22    24    1
    32    22    25    1
    33    32    33    1
    34    32    34    1
    35    13    35    1
    36    35    36    1
    37    13    37    1
    38    32    38    1
    39    38    39    1
    40    38    40    1
    41    38    41    1
@<TRIPOS>SUBSTRUCTURE
     1 1           1 GROUP             0 ****  ****    0  
@<TRIPOS>MOLECULE
Molecule Name_00001_00085
    41    41     1     0     0
SMALL
NO_CHARGES
****
Generated from the CSD

@<TRIPOS>ATOM
     1 C5      -4.4342   1.3673  -0.8099   C.ar      1 1      0.0000
     2 C4      -3.6256   0.6424  -1.6585   C.ar      1 1      0.0000
     3 C3      -2.6295  -0.1708  -1.1444   C.ar      1 1      0.0000
     4 C8      -2.4296  -0.2704   0.2239   C.ar      1 1      0.0000
     5 C7      -3.2495   0.4653   1.0657   C.ar      1 1      0.0000
     6 C6      -4.2460   1.2788   0.5525   C.ar      1 1      0.0000
     7 H4      -3.7698   0.7091  -2.7318   H         1 1      0.0000
     8 C9      -1.3415  -1.1544   0.7838   C.3       1 1      0.0000
     9 H7      -3.1089   0.4029   2.1397   H         1 1      0.0000
    10 H6      -4.8798   1.8478   1.2246   H         1 1      0.0000
    11 C10      0.0106  -0.4511   0.8848   C.3       1 1      0.0000
    12 H9A     -1.6404  -1.4982   1.7817   H         1 1      0.0000
    13 C11      1.1439  -1.2966   1.4431   C.3       1 1      0.0000
    14 C12      2.4582  -0.5251   1.4917   C.3       1 1      0.0000
    15 H12A     3.2049  -1.1225   2.0293   H         1 1      0.0000
    16 C13      2.9883  -0.1909   0.1305   C.2       1 1      0.0000
    17 C14      3.7518   1.0906  -0.0192   C.3       1 1      0.0000
    18 H14B     4.4223   1.0022  -0.8830   H         1 1      0.0000
    19 H14A     4.3757   1.2452   0.8696   H         1 1      0.0000
    20 N        2.8002  -1.0084  -0.8863   N.pl3     1 1      0.0000
    21 HN       2.3509  -1.8994  -0.6756   H         1 1      0.0000
    22 C        3.2865  -0.8307  -2.2467   C.3       1 1      0.0000
    23 H1A      3.1531  -1.7419  -2.8261   H         1 1      0.0000
    24 H1C      2.7470  -0.0292  -2.7471   H         1 1      0.0000
    25 H1B      4.3449  -0.5792  -2.2493   H         1 1      0.0000
    26 H10A     0.2969  -0.1080  -0.1171   H         1 1      0.0000
    27 H10B    -0.1065   0.4344   1.5217   H         1 1      0.0000
    28 H9B     -1.2368  -2.0390   0.1435   H         1 1      0.0000
    29 H5      -5.2149   2.0043  -1.2122   H         1 1      0.0000
    30 H3      -1.9977  -0.7370  -1.8208   H         1 1      0.0000
    31 H12B     2.3068   0.4045   2.0541   H         1 1      0.0000
    32 C15      2.8619   2.3042  -0.2144   C.3       1 1      0.0000
    33 H15A     2.1871   2.3975   0.6455   H         1 1      0.0000
    34 H15C     2.2448   2.1577  -1.1094   H         1 1      0.0000
    35 OH       0.8005  -1.7207   2.7652   O.3       1 1      0.0000
    36 OH1     -0.0366  -2.2465   2.7365   H         1 1      0.0000
    37 H22      1.2752  -2.1840   0.8048   H         1 1      0.0000
    38 C16      3.6552   3.5819  -0.3625   C.3       1 1      0.0000
    39 H16C     4.3190   3.5262  -1.2227   H         1 1      0.0000
    40 H16A     2.9923   4.4336  -0.5006   H         1 1      0.0000
    41 H16B     4.2615   3.7643   0.5223   H         1 1      0.0000
@<TRIPOS>BOND
     1     1     2   ar
     2     1     6   ar
     3     1    29    1
     4     2     3   ar
     5     2     7    1
     6     3     4   ar
     7     3    30    1
     8     4     5   ar
     9     4     8    1
    10     5     6   ar
    11     5     9    1
    12     6    10    1
    13     8    11    1
    14     8    12    1
    15     8    28    1
    16    11    13    1
    17    11    26    1
    18    11    27    1
    19    13    14    1
    20    14    15    1
    21    14    16    1
    22    14    31    1
    23    16    17    1
    24    16    20    2
    25    17    18    1
    26    17    19    1
    27    17    32    1
    28    20    21    1
    29    20    22    1
    30    22    23    1
    31    22    24    1
    32    22    25    1
    33    32    33    1
    34    32    34    1
    35    13    35    1
    36    35    36    1
    37    13    37    1
    38    32    38    1
    39    38    39    1
    40    38    40    1
    41    38    41    1
@<TRIPOS>SUBSTRUCTURE
     1 1           1 GROUP             0 ****  ****    0  
@<TRIPOS>MOLECULE
Molecule Name_00001_00086
    41    41     1     0     0
SMALL
NO_CHARGES
****
Generated from the CSD

@<TRIPOS>ATOM
     1 C5      -5.5298   0.7844   0.2123   C.ar      1 1      0.0000
     2 C4      -5.3566  -0.5746   0.0621   C.ar      1 1      0.0000
     3 C3      -4.0821  -1.1055  -0.0465   C.ar      1 1      0.0000
     4 C8      -2.9652  -0.2852  -0.0057   C.ar      1 1      0.0000
     5 C7      -3.1544   1.0800   0.1446   C.ar      1 1      0.0000
     6 C6      -4.4285   1.6119   0.2533   C.ar      1 1      0.0000
     7 H4      -6.2206  -1.2300   0.0289   H         1 1      0.0000
     8 C9      -1.5763  -0.8640  -0.1274   C.3       1 1      0.0000
     9 H7      -2.2938   1.7398   0.1774   H         1 1      0.0000
    10 H6      -4.5599   2.6824   0.3711   H         1 1      0.0000
    11 C10     -0.4770   0.1944  -0.0596   C.3       1 1      0.0000
    12 H9A     -1.4217  -1.5912   0.6792   H         1 1      0.0000
    13 C11      0.9435  -0.3341  -0.1773   C.3       1 1      0.0000
    14 C12      1.9743   0.7879  -0.1192   C.3       1 1      0.0000
    15 H12A     1.9236   1.2706   0.8646   H         1 1      0.0000
    16 C13      3.3735   0.3063  -0.3553   C.2       1 1      0.0000
    17 C14      4.4708   1.3275  -0.3262   C.3       1 1      0.0000
    18 H14B     4.1045   2.2513  -0.7906   H         1 1      0.0000
    19 H14A     5.3152   0.9674  -0.9266   H         1 1      0.0000
    20 N        3.6214  -0.9717  -0.5620   N.pl3     1 1      0.0000
    21 HN       2.8294  -1.6081  -0.4738   H         1 1      0.0000
    22 C        4.9267  -1.5823  -0.7679   C.3       1 1      0.0000
    23 H1A      4.9617  -2.5758  -0.3259   H         1 1      0.0000
    24 H1C      5.1450  -1.6760  -1.8297   H         1 1      0.0000
    25 H1B      5.7110  -0.9811  -0.3130   H         1 1      0.0000
    26 H10A    -0.6442   0.9179  -0.8671   H         1 1      0.0000
    27 H10B    -0.5694   0.7289   0.8939   H         1 1      0.0000
    28 H9B     -1.4966  -1.4009  -1.0807   H         1 1      0.0000
    29 H5      -6.5282   1.2007   0.2977   H         1 1      0.0000
    30 H3      -3.9562  -2.1766  -0.1651   H         1 1      0.0000
    31 H12B     1.7242   1.5430  -0.8747   H         1 1      0.0000
    32 C15      4.9616   1.6465   1.0739   C.3       1 1      0.0000
    33 H15A     5.8492   2.2876   1.0066   H         1 1      0.0000
    34 H15C     5.2587   0.7153   1.5719   H         1 1      0.0000
    35 OH       1.1888  -1.2515   0.8923   O.3       1 1      0.0000
    36 OH1      0.5399  -1.9963   0.8442   H         1 1      0.0000
    37 H22      1.0486  -0.8651  -1.1361   H         1 1      0.0000
    38 C16      3.9105   2.3415   1.9080   C.3       1 1      0.0000
    39 H16C     3.2269   1.6184   2.3478   H         1 1      0.0000
    40 H16A     4.3708   2.9073   2.7153   H         1 1      0.0000
    41 H16B     3.3291   3.0311   1.2995   H         1 1      0.0000
@<TRIPOS>BOND
     1     1     2   ar
     2     1     6   ar
     3     1    29    1
     4     2     3   ar
     5     2     7    1
     6     3     4   ar
     7     3    30    1
     8     4     5   ar
     9     4     8    1
    10     5     6   ar
    11     5     9    1
    12     6    10    1
    13     8    11    1
    14     8    12    1
    15     8    28    1
    16    11    13    1
    17    11    26    1
    18    11    27    1
    19    13    14    1
    20    14    15    1
    21    14    16    1
    22    14    31    1
    23    16    17    1
    24    16    20    2
    25    17    18    1
    26    17    19    1
    27    17    32    1
    28    20    21    1
    29    20    22    1
    30    22    23    1
    31    22    24    1
    32    22    25    1
    33    32    33    1
    34    32    34    1
    35    13    35    1
    36    35    36    1
    37    13    37    1
    38    32    38    1
    39    38    39    1
    40    38    40    1
    41    38    41    1
@<TRIPOS>SUBSTRUCTURE
     1 1           1 GROUP             0 ****  ****    0  
@<TRIPOS>MOLECULE
Molecule Name_00001_00087
    41    41     1     0     0
SMALL
NO_CHARGES
****
Generated from the CSD

@<TRIPOS>ATOM
     1 C5      -5.6368   0.6718  -0.2462   C.ar      1 1      0.0000
     2 C4      -5.4378  -0.3975   0.6003   C.ar      1 1      0.0000
     3 C3      -4.1534  -0.8323   0.8816   C.ar      1 1      0.0000
     4 C8      -3.0521  -0.2036   0.3212   C.ar      1 1      0.0000
     5 C7      -3.2672   0.8698  -0.5294   C.ar      1 1      0.0000
     6 C6      -4.5512   1.3054  -0.8113   C.ar      1 1      0.0000
     7 H4      -6.2893  -0.8998   1.0473   H         1 1      0.0000
     8 C9      -1.6523  -0.6799   0.6255   C.3       1 1      0.0000
     9 H7      -2.4191   1.3749  -0.9798   H         1 1      0.0000
    10 H6      -4.7029   2.1474  -1.4786   H         1 1      0.0000
    11 C10     -0.5732   0.1367  -0.0829   C.3       1 1      0.0000
    12 H9A     -1.4860  -0.6277   1.7086   H         1 1      0.0000
    13 C11      0.8572  -0.3006   0.1887   C.3       1 1      0.0000
    14 C12      1.8667   0.5536  -0.5702   C.3       1 1      0.0000
    15 H12A     1.8032   1.5881  -0.2105   H         1 1      0.0000
    16 C13      3.2756   0.0679  -0.4134   C.2       1 1      0.0000
    17 C14      4.3561   0.8441  -1.1046   C.3       1 1      0.0000
    18 H14B     3.9919   1.1512  -2.0928   H         1 1      0.0000
    19 H14A     5.2254   0.1935  -1.2597   H         1 1      0.0000
    20 N        3.5459  -0.9926   0.3213   N.pl3     1 1      0.0000
    21 HN       2.7634  -1.4047   0.8292   H         1 1      0.0000
    22 C        4.8626  -1.5522   0.5897   C.3       1 1      0.0000
    23 H1A      4.9169  -1.9411   1.6043   H         1 1      0.0000
    24 H1C      5.0824  -2.3667  -0.0974   H         1 1      0.0000
    25 H1B      5.6353  -0.7950   0.4750   H         1 1      0.0000
    26 H10A    -0.7520   0.0809  -1.1637   H         1 1      0.0000
    27 H10B    -0.6778   1.1856   0.2206   H         1 1      0.0000
    28 H9B     -1.5603  -1.7307   0.3241   H         1 1      0.0000
    29 H5      -6.6429   1.0129  -0.4666   H         1 1      0.0000
    30 H3      -4.0072  -1.6753   1.5488   H         1 1      0.0000
    31 H12B     1.6057   0.5542  -1.6357   H         1 1      0.0000
    32 C15      4.7948   2.0797  -0.3405   C.3       1 1      0.0000
    33 H15A     3.9212   2.7167  -0.1545   H         1 1      0.0000
    34 H15C     5.5006   2.6514  -0.9556   H         1 1      0.0000
    35 OH       1.1170  -0.1976   1.5914   O.3       1 1      0.0000
    36 OH1      0.4873  -0.7767   2.0875   H         1 1      0.0000
    37 H22      0.9745  -1.3505  -0.1214   H         1 1      0.0000
    38 C16      5.4493   1.7389   0.9782   C.3       1 1      0.0000
    39 H16C     6.3334   1.1242   0.8225   H         1 1      0.0000
    40 H16A     5.7528   2.6423   1.5030   H         1 1      0.0000
    41 H16B     4.7628   1.1891   1.6188   H         1 1      0.0000
@<TRIPOS>BOND
     1     1     2   ar
     2     1     6   ar
     3     1    29    1
     4     2     3   ar
     5     2     7    1
     6     3     4   ar
     7     3    30    1
     8     4     5   ar
     9     4     8    1
    10     5     6   ar
    11     5     9    1
    12     6    10    1
    13     8    11    1
    14     8    12    1
    15     8    28    1
    16    11    13    1
    17    11    26    1
    18    11    27    1
    19    13    14    1
    20    14    15    1
    21    14    16    1
    22    14    31    1
    23    16    17    1
    24    16    20    2
    25    17    18    1
    26    17    19    1
    27    17    32    1
    28    20    21    1
    29    20    22    1
    30    22    23    1
    31    22    24    1
    32    22    25    1
    33    32    33    1
    34    32    34    1
    35    13    35    1
    36    35    36    1
    37    13    37    1
    38    32    38    1
    39    38    39    1
    40    38    40    1
    41    38    41    1
@<TRIPOS>SUBSTRUCTURE
     1 1           1 GROUP             0 ****  ****    0  
@<TRIPOS>MOLECULE
Molecule Name_00001_00088
    41    41     1     0     0
SMALL
NO_CHARGES
****
Generated from the CSD

@<TRIPOS>ATOM
     1 C5      -5.6165   0.7299   0.2128   C.ar      1 1      0.0000
     2 C4      -5.3924  -0.3236  -0.6470   C.ar      1 1      0.0000
     3 C3      -4.1023  -0.7719  -0.8765   C.ar      1 1      0.0000
     4 C8      -3.0204  -0.1735  -0.2491   C.ar      1 1      0.0000
     5 C7      -3.2605   0.8859   0.6123   C.ar      1 1      0.0000
     6 C6      -4.5502   1.3349   0.8425   C.ar      1 1      0.0000
     7 H4      -6.2287  -0.8029  -1.1453   H         1 1      0.0000
     8 C9      -1.6141  -0.6604  -0.5021   C.3       1 1      0.0000
     9 H7      -2.4277   1.3692   1.1123   H         1 1      0.0000
    10 H6      -4.7216   2.1649   1.5200   H         1 1      0.0000
    11 C10     -0.5589   0.1215   0.2779   C.3       1 1      0.0000
    12 H9A     -1.5492  -1.7202  -0.2264   H         1 1      0.0000
    13 C11      0.8770  -0.3276   0.0602   C.3       1 1      0.0000
    14 C12      1.8640   0.5160   0.8596   C.3       1 1      0.0000
    15 H12A     1.6718   0.3742   1.9303   H         1 1      0.0000
    16 C13      3.2933   0.1709   0.5702   C.2       1 1      0.0000
    17 C14      4.3520   0.9279   1.3143   C.3       1 1      0.0000
    18 H14B     5.2624   0.3168   1.3501   H         1 1      0.0000
    19 H14A     4.0213   1.0900   2.3475   H         1 1      0.0000
    20 N        3.5969  -0.7764  -0.2945   N.pl3     1 1      0.0000
    21 HN       2.8153  -1.3020  -0.6856   H         1 1      0.0000
    22 C        4.9320  -1.2389  -0.6448   C.3       1 1      0.0000
    23 H1A      4.8876  -2.2091  -1.1352   H         1 1      0.0000
    24 H1C      5.4169  -0.5390  -1.3220   H         1 1      0.0000
    25 H1B      5.5530  -1.3359   0.2431   H         1 1      0.0000
    26 H10A    -0.6361   1.1793  -0.0021   H         1 1      0.0000
    27 H10B    -0.7884   0.0403   1.3476   H         1 1      0.0000
    28 H9B     -1.3972  -0.5806  -1.5745   H         1 1      0.0000
    29 H5      -6.6271   1.0812   0.3931   H         1 1      0.0000
    30 H3      -3.9363  -1.6016  -1.5557   H         1 1      0.0000
    31 H12B     1.6985   1.5755   0.6283   H         1 1      0.0000
    32 C15      4.6885   2.2686   0.6880   C.3       1 1      0.0000
    33 H15A     5.3830   2.8079   1.3439   H         1 1      0.0000
    34 H15C     3.7730   2.8673   0.6059   H         1 1      0.0000
    35 OH       1.0018  -1.6961   0.4568   O.3       1 1      0.0000
    36 OH1      0.3837  -2.2528  -0.0781   H         1 1      0.0000
    37 H22      1.1197  -0.2410  -1.0102   H         1 1      0.0000
    38 C16      5.3112   2.1242  -0.6813   C.3       1 1      0.0000
    39 H16C     4.6341   1.6108  -1.3607   H         1 1      0.0000
    40 H16A     5.5415   3.0995  -1.1050   H         1 1      0.0000
    41 H16B     6.2348   1.5519  -0.6266   H         1 1      0.0000
@<TRIPOS>BOND
     1     1     2   ar
     2     1     6   ar
     3     1    29    1
     4     2     3   ar
     5     2     7    1
     6     3     4   ar
     7     3    30    1
     8     4     5   ar
     9     4     8    1
    10     5     6   ar
    11     5     9    1
    12     6    10    1
    13     8    11    1
    14     8    12    1
    15     8    28    1
    16    11    13    1
    17    11    26    1
    18    11    27    1
    19    13    14    1
    20    14    15    1
    21    14    16    1
    22    14    31    1
    23    16    17    1
    24    16    20    2
    25    17    18    1
    26    17    19    1
    27    17    32    1
    28    20    21    1
    29    20    22    1
    30    22    23    1
    31    22    24    1
    32    22    25    1
    33    32    33    1
    34    32    34    1
    35    13    35    1
    36    35    36    1
    37    13    37    1
    38    32    38    1
    39    38    39    1
    40    38    40    1
    41    38    41    1
@<TRIPOS>SUBSTRUCTURE
     1 1           1 GROUP             0 ****  ****    0  
@<TRIPOS>MOLECULE
Molecule Name_00001_00089
    41    41     1     0     0
SMALL
NO_CHARGES
****
Generated from the CSD

@<TRIPOS>ATOM
     1 C5      -5.4983   0.7901   0.3866   C.ar      1 1      0.0000
     2 C4      -5.3348  -0.2211  -0.5355   C.ar      1 1      0.0000
     3 C3      -4.0663  -0.6852  -0.8412   C.ar      1 1      0.0000
     4 C8      -2.9458  -0.1454  -0.2288   C.ar      1 1      0.0000
     5 C7      -3.1251   0.8720   0.6958   C.ar      1 1      0.0000
     6 C6      -4.3931   1.3369   1.0022   C.ar      1 1      0.0000
     7 H4      -6.2018  -0.6545  -1.0230   H         1 1      0.0000
     8 C9      -1.5630  -0.6494  -0.5647   C.3       1 1      0.0000
     9 H7      -2.2613   1.3094   1.1854   H         1 1      0.0000
    10 H6      -4.5168   2.1333   1.7286   H         1 1      0.0000
    11 C10     -0.4586   0.0663   0.2106   C.3       1 1      0.0000
    12 H9A     -1.5131  -1.7235  -0.3475   H         1 1      0.0000
    13 C11      0.9560  -0.4026  -0.0894   C.3       1 1      0.0000
    14 C12      1.9946   0.3752   0.7113   C.3       1 1      0.0000
    15 H12A     1.8412   0.1824   1.7803   H         1 1      0.0000
    16 C13      3.4022   0.0126   0.3470   C.2       1 1      0.0000
    17 C14      4.5081   0.6930   1.0966   C.3       1 1      0.0000
    18 H14B     5.3931   0.0449   1.0835   H         1 1      0.0000
    19 H14A     4.2081   0.8224   2.1437   H         1 1      0.0000
    20 N        3.6477  -0.8851  -0.5865   N.pl3     1 1      0.0000
    21 HN       2.8380  -1.3643  -0.9800   H         1 1      0.0000
    22 C        4.9557  -1.3586  -1.0154   C.3       1 1      0.0000
    23 H1A      4.8725  -2.3213  -1.5154   H         1 1      0.0000
    24 H1C      5.4118  -0.6551  -1.7088   H         1 1      0.0000
    25 H1B      5.6230  -1.4753  -0.1641   H         1 1      0.0000
    26 H10A    -0.5211   1.1389  -0.0105   H         1 1      0.0000
    27 H10B    -0.6469  -0.0664   1.2832   H         1 1      0.0000
    28 H9B     -1.3874  -0.5177  -1.6395   H         1 1      0.0000
    29 H5      -6.4919   1.1538   0.6266   H         1 1      0.0000
    30 H3      -3.9480  -1.4813  -1.5689   H         1 1      0.0000
    31 H12B     1.8470   1.4488   0.5413   H         1 1      0.0000
    32 C15      4.8849   2.0454   0.5206   C.3       1 1      0.0000
    33 H15A     5.1331   1.9276  -0.5414   H         1 1      0.0000
    34 H15C     5.7798   2.4184   1.0338   H         1 1      0.0000
    35 OH       1.0631  -1.7927   0.2299   O.3       1 1      0.0000
    36 OH1      0.4105  -2.3063  -0.3072   H         1 1      0.0000
    37 H22      1.1576  -0.2649  -1.1630   H         1 1      0.0000
    38 C16      3.7739   3.0603   0.6601   C.3       1 1      0.0000
    39 H16C     3.2453   2.9265   1.6016   H         1 1      0.0000
    40 H16A     4.1712   4.0729   0.6354   H         1 1      0.0000
    41 H16B     3.0547   2.9586  -0.1498   H         1 1      0.0000
@<TRIPOS>BOND
     1     1     2   ar
     2     1     6   ar
     3     1    29    1
     4     2     3   ar
     5     2     7    1
     6     3     4   ar
     7     3    30    1
     8     4     5   ar
     9     4     8    1
    10     5     6   ar
    11     5     9    1
    12     6    10    1
    13     8    11    1
    14     8    12    1
    15     8    28    1
    16    11    13    1
    17    11    26    1
    18    11    27    1
    19    13    14    1
    20    14    15    1
    21    14    16    1
    22    14    31    1
    23    16    17    1
    24    16    20    2
    25    17    18    1
    26    17    19    1
    27    17    32    1
    28    20    21    1
    29    20    22    1
    30    22    23    1
    31    22    24    1
    32    22    25    1
    33    32    33    1
    34    32    34    1
    35    13    35    1
    36    35    36    1
    37    13    37    1
    38    32    38    1
    39    38    39    1
    40    38    40    1
    41    38    41    1
@<TRIPOS>SUBSTRUCTURE
     1 1           1 GROUP             0 ****  ****    0  
@<TRIPOS>MOLECULE
Molecule Name_00001_00090
    41    41     1     0     0
SMALL
NO_CHARGES
****
Generated from the CSD

@<TRIPOS>ATOM
     1 C5      -5.3864   0.6017  -0.1046   C.ar      1 1      0.0000
     2 C4      -4.9189  -0.2833   0.8429   C.ar      1 1      0.0000
     3 C3      -3.5578  -0.4093   1.0654   C.ar      1 1      0.0000
     4 C8      -2.6472   0.3479   0.3446   C.ar      1 1      0.0000
     5 C7      -3.1315   1.2332  -0.6061   C.ar      1 1      0.0000
     6 C6      -4.4924   1.3600  -0.8294   C.ar      1 1      0.0000
     7 H4      -5.6188  -0.8826   1.4157   H         1 1      0.0000
     8 C9      -1.1635   0.2079   0.5852   C.3       1 1      0.0000
     9 H7      -2.4358   1.8342  -1.1823   H         1 1      0.0000
    10 H6      -4.8557   2.0578  -1.5766   H         1 1      0.0000
    11 C10     -0.5235  -0.9039  -0.2437   C.3       1 1      0.0000
    12 H9A     -0.6727   1.1593   0.3458   H         1 1      0.0000
    13 C11      0.9717  -1.0890  -0.0403   C.3       1 1      0.0000
    14 C12      1.7599   0.1468  -0.4599   C.3       1 1      0.0000
    15 H12A     1.4798   0.9874   0.1869   H         1 1      0.0000
    16 C13      3.2429  -0.0545  -0.3840   C.2       1 1      0.0000
    17 C14      4.1185   1.0963  -0.7799   C.3       1 1      0.0000
    18 H14B     3.6602   1.6099  -1.6341   H         1 1      0.0000
    19 H14A     5.0924   0.7129  -1.1079   H         1 1      0.0000
    20 N        3.7481  -1.1981   0.0334   N.pl3     1 1      0.0000
    21 HN       3.0818  -1.8933   0.3694   H         1 1      0.0000
    22 C        5.1590  -1.5198   0.1913   C.3       1 1      0.0000
    23 H1A      5.3111  -2.1797   1.0428   H         1 1      0.0000
    24 H1C      5.5422  -2.0185  -0.6965   H         1 1      0.0000
    25 H1B      5.7455  -0.6178   0.3524   H         1 1      0.0000
    26 H10A    -1.0247  -1.8487   0.0004   H         1 1      0.0000
    27 H10B    -0.7046  -0.6927  -1.3048   H         1 1      0.0000
    28 H9B     -0.9932   0.0030   1.6494   H         1 1      0.0000
    29 H5      -6.4527   0.7009  -0.2790   H         1 1      0.0000
    30 H3      -3.1997  -1.1092   1.8132   H         1 1      0.0000
    31 H12B     1.4878   0.4124  -1.4889   H         1 1      0.0000
    32 C15      4.3346   2.1021   0.3356   C.3       1 1      0.0000
    33 H15A     5.0899   2.8324   0.0202   H         1 1      0.0000
    34 H15C     4.7221   1.5810   1.2198   H         1 1      0.0000
    35 OH       1.2235  -1.3583   1.3417   O.3       1 1      0.0000
    36 OH1      0.7336  -2.1731   1.6142   H         1 1      0.0000
    37 H22      1.3100  -1.9480  -0.6402   H         1 1      0.0000
    38 C16      3.0644   2.8318   0.7069   C.3       1 1      0.0000
    39 H16C     2.4685   2.2410   1.3994   H         1 1      0.0000
    40 H16A     3.2915   3.7839   1.1821   H         1 1      0.0000
    41 H16B     2.4608   3.0293  -0.1765   H         1 1      0.0000
@<TRIPOS>BOND
     1     1     2   ar
     2     1     6   ar
     3     1    29    1
     4     2     3   ar
     5     2     7    1
     6     3     4   ar
     7     3    30    1
     8     4     5   ar
     9     4     8    1
    10     5     6   ar
    11     5     9    1
    12     6    10    1
    13     8    11    1
    14     8    12    1
    15     8    28    1
    16    11    13    1
    17    11    26    1
    18    11    27    1
    19    13    14    1
    20    14    15    1
    21    14    16    1
    22    14    31    1
    23    16    17    1
    24    16    20    2
    25    17    18    1
    26    17    19    1
    27    17    32    1
    28    20    21    1
    29    20    22    1
    30    22    23    1
    31    22    24    1
    32    22    25    1
    33    32    33    1
    34    32    34    1
    35    13    35    1
    36    35    36    1
    37    13    37    1
    38    32    38    1
    39    38    39    1
    40    38    40    1
    41    38    41    1
@<TRIPOS>SUBSTRUCTURE
     1 1           1 GROUP             0 ****  ****    0  
@<TRIPOS>MOLECULE
Molecule Name_00001_00091
    41    41     1     0     0
SMALL
NO_CHARGES
****
Generated from the CSD

@<TRIPOS>ATOM
     1 C5      -5.5114   0.4654  -0.1933   C.ar      1 1      0.0000
     2 C4      -5.0163  -0.2483   0.8767   C.ar      1 1      0.0000
     3 C3      -3.6516  -0.2988   1.1074   C.ar      1 1      0.0000
     4 C8      -2.7652   0.3639   0.2724   C.ar      1 1      0.0000
     5 C7      -3.2772   1.0768  -0.8007   C.ar      1 1      0.0000
     6 C6      -4.6417   1.1279  -1.0323   C.ar      1 1      0.0000
     7 H4      -5.6971  -0.7718   1.5398   H         1 1      0.0000
     8 C9      -1.2776   0.3059   0.5224   C.3       1 1      0.0000
     9 H7      -2.6006   1.6013  -1.4673   H         1 1      0.0000
    10 H6      -5.0268   1.6908  -1.8761   H         1 1      0.0000
    11 C10     -0.6063  -0.9018  -0.1286   C.3       1 1      0.0000
    12 H9A     -0.8156   1.2226   0.1355   H         1 1      0.0000
    13 C11      0.8941  -1.0097   0.0915   C.3       1 1      0.0000
    14 C12      1.6445   0.1686  -0.5193   C.3       1 1      0.0000
    15 H12A     1.3392   1.0910  -0.0099   H         1 1      0.0000
    16 C13      3.1330   0.0259  -0.4202   C.2       1 1      0.0000
    17 C14      3.9730   1.1370  -0.9747   C.3       1 1      0.0000
    18 H14B     3.5199   1.4878  -1.9101   H         1 1      0.0000
    19 H14A     4.9707   0.7499  -1.2150   H         1 1      0.0000
    20 N        3.6728  -1.0323   0.1510   N.pl3     1 1      0.0000
    21 HN       3.0279  -1.6943   0.5823   H         1 1      0.0000
    22 C        5.0927  -1.2849   0.3483   C.3       1 1      0.0000
    23 H1A      5.2662  -1.7934   1.2944   H         1 1      0.0000
    24 H1C      5.4873  -1.9104  -0.4498   H         1 1      0.0000
    25 H1B      5.6538  -0.3529   0.3565   H         1 1      0.0000
    26 H10A    -1.0788  -1.8115   0.2619   H         1 1      0.0000
    27 H10B    -0.7955  -0.8628  -1.2085   H         1 1      0.0000
    28 H9B     -1.0993   0.2732   1.6043   H         1 1      0.0000
    29 H5      -6.5805   0.5054  -0.3742   H         1 1      0.0000
    30 H3      -3.2716  -0.8638   1.9521   H         1 1      0.0000
    31 H12B     1.3643   0.2625  -1.5757   H         1 1      0.0000
    32 C15      4.1156   2.3155  -0.0295   C.3       1 1      0.0000
    33 H15A     3.1179   2.6839   0.2393   H         1 1      0.0000
    34 H15C     4.6444   3.1274  -0.5438   H         1 1      0.0000
    35 OH       1.1562  -1.0544   1.4969   O.3       1 1      0.0000
    36 OH1      0.6912  -1.8310   1.8952   H         1 1      0.0000
    37 H22      1.2566  -1.9410  -0.3705   H         1 1      0.0000
    38 C16      4.8668   1.9548   1.2312   C.3       1 1      0.0000
    39 H16C     5.8701   1.6059   0.9959   H         1 1      0.0000
    40 H16A     4.9534   2.8173   1.8887   H         1 1      0.0000
    41 H16B     4.3519   1.1650   1.7743   H         1 1      0.0000
@<TRIPOS>BOND
     1     1     2   ar
     2     1     6   ar
     3     1    29    1
     4     2     3   ar
     5     2     7    1
     6     3     4   ar
     7     3    30    1
     8     4     5   ar
     9     4     8    1
    10     5     6   ar
    11     5     9    1
    12     6    10    1
    13     8    11    1
    14     8    12    1
    15     8    28    1
    16    11    13    1
    17    11    26    1
    18    11    27    1
    19    13    14    1
    20    14    15    1
    21    14    16    1
    22    14    31    1
    23    16    17    1
    24    16    20    2
    25    17    18    1
    26    17    19    1
    27    17    32    1
    28    20    21    1
    29    20    22    1
    30    22    23    1
    31    22    24    1
    32    22    25    1
    33    32    33    1
    34    32    34    1
    35    13    35    1
    36    35    36    1
    37    13    37    1
    38    32    38    1
    39    38    39    1
    40    38    40    1
    41    38    41    1
@<TRIPOS>SUBSTRUCTURE
     1 1           1 GROUP             0 ****  ****    0  
@<TRIPOS>MOLECULE
Molecule Name_00001_00092
    41    41     1     0     0
SMALL
NO_CHARGES
****
Generated from the CSD

@<TRIPOS>ATOM
     1 C5      -5.5223   0.6910   0.0674   C.ar      1 1      0.0000
     2 C4      -5.0803  -0.4819  -0.5055   C.ar      1 1      0.0000
     3 C3      -3.7475  -0.8452  -0.4067   C.ar      1 1      0.0000
     4 C8      -2.8403  -0.0414   0.2664   C.ar      1 1      0.0000
     5 C7      -3.2987   1.1362   0.8368   C.ar      1 1      0.0000
     6 C6      -4.6313   1.5003   0.7386   C.ar      1 1      0.0000
     7 H4      -5.7780  -1.1221  -1.0351   H         1 1      0.0000
     8 C9      -1.3871  -0.4361   0.3710   C.3       1 1      0.0000
     9 H7      -2.6049   1.7804   1.3667   H         1 1      0.0000
    10 H6      -4.9745   2.4249   1.1909   H         1 1      0.0000
    11 C10     -0.5502   0.0350  -0.8167   C.3       1 1      0.0000
    12 H9A     -0.9687  -0.0130   1.2926   H         1 1      0.0000
    13 C11      0.9231  -0.3359  -0.7628   C.3       1 1      0.0000
    14 C12      1.6278   0.3056   0.4274   C.3       1 1      0.0000
    15 H12A     1.1929  -0.0861   1.3552   H         1 1      0.0000
    16 C13      3.1048   0.0525   0.4356   C.2       1 1      0.0000
    17 C14      3.8982   0.6236   1.5723   C.3       1 1      0.0000
    18 H14B     4.8126   0.0303   1.6965   H         1 1      0.0000
    19 H14A     3.3175   0.5346   2.4986   H         1 1      0.0000
    20 N        3.6723  -0.6616  -0.5158   N.pl3     1 1      0.0000
    21 HN       3.0461  -1.0881  -1.1986   H         1 1      0.0000
    22 C        5.0808  -1.0154  -0.6151   C.3       1 1      0.0000
    23 H1A      5.2227  -1.8434  -1.3066   H         1 1      0.0000
    24 H1C      5.6659  -0.1710  -0.9733   H         1 1      0.0000
    25 H1B      5.4742  -1.3125   0.3547   H         1 1      0.0000
    26 H10A    -0.9800  -0.3901  -1.7321   H         1 1      0.0000
    27 H10B    -0.6297   1.1270  -0.8847   H         1 1      0.0000
    28 H9B     -1.3192  -1.5286   0.4445   H         1 1      0.0000
    29 H5      -6.5665   0.9759  -0.0095   H         1 1      0.0000
    30 H3      -3.4092  -1.7702  -0.8617   H         1 1      0.0000
    31 H12B     1.4510   1.3881   0.4070   H         1 1      0.0000
    32 C15      4.2835   2.0773   1.3693   C.3       1 1      0.0000
    33 H15A     4.7605   2.4539   2.2825   H         1 1      0.0000
    34 H15C     3.3762   2.6694   1.1974   H         1 1      0.0000
    35 OH       1.0417  -1.7581  -0.6667   O.3       1 1      0.0000
    36 OH1      0.6071  -2.1795  -1.4487   H         1 1      0.0000
    37 H22      1.4106   0.0025  -1.6902   H         1 1      0.0000
    38 C16      5.2268   2.2655   0.2038   C.3       1 1      0.0000
    39 H16C     4.7705   1.9197  -0.7214   H         1 1      0.0000
    40 H16A     5.4853   3.3153   0.0825   H         1 1      0.0000
    41 H16B     6.1468   1.7055   0.3579   H         1 1      0.0000
@<TRIPOS>BOND
     1     1     2   ar
     2     1     6   ar
     3     1    29    1
     4     2     3   ar
     5     2     7    1
     6     3     4   ar
     7     3    30    1
     8     4     5   ar
     9     4     8    1
    10     5     6   ar
    11     5     9    1
    12     6    10    1
    13     8    11    1
    14     8    12    1
    15     8    28    1
    16    11    13    1
    17    11    26    1
    18    11    27    1
    19    13    14    1
    20    14    15    1
    21    14    16    1
    22    14    31    1
    23    16    17    1
    24    16    20    2
    25    17    18    1
    26    17    19    1
    27    17    32    1
    28    20    21    1
    29    20    22    1
    30    22    23    1
    31    22    24    1
    32    22    25    1
    33    32    33    1
    34    32    34    1
    35    13    35    1
    36    35    36    1
    37    13    37    1
    38    32    38    1
    39    38    39    1
    40    38    40    1
    41    38    41    1
@<TRIPOS>SUBSTRUCTURE
     1 1           1 GROUP             0 ****  ****    0  
@<TRIPOS>MOLECULE
Molecule Name_00001_00093
    41    41     1     0     0
SMALL
NO_CHARGES
****
Generated from the CSD

@<TRIPOS>ATOM
     1 C5      -5.3914   0.7561   0.2211   C.ar      1 1      0.0000
     2 C4      -4.9950  -0.4149  -0.3880   C.ar      1 1      0.0000
     3 C3      -3.6668  -0.8051  -0.3471   C.ar      1 1      0.0000
     4 C8      -2.7187  -0.0305   0.3034   C.ar      1 1      0.0000
     5 C7      -3.1314   1.1456   0.9106   C.ar      1 1      0.0000
     6 C6      -4.4594   1.5366   0.8703   C.ar      1 1      0.0000
     7 H4      -5.7250  -1.0325  -0.9006   H         1 1      0.0000
     8 C9      -1.2705  -0.4545   0.3448   C.3       1 1      0.0000
     9 H7      -2.4052   1.7672   1.4236   H         1 1      0.0000
    10 H6      -4.7667   2.4595   1.3510   H         1 1      0.0000
    11 C10     -0.4709   0.0212  -0.8666   C.3       1 1      0.0000
    12 H9A     -0.8086  -0.0554   1.2563   H         1 1      0.0000
    13 C11      0.9957  -0.3786  -0.8762   C.3       1 1      0.0000
    14 C12      1.7583   0.2287   0.2961   C.3       1 1      0.0000
    15 H12A     1.3509  -0.1694   1.2336   H         1 1      0.0000
    16 C13      3.2289  -0.0542   0.2438   C.2       1 1      0.0000
    17 C14      4.0743   0.4676   1.3667   C.3       1 1      0.0000
    18 H14B     4.9661  -0.1645   1.4592   H         1 1      0.0000
    19 H14A     3.5143   0.3896   2.3066   H         1 1      0.0000
    20 N        3.7470  -0.7519  -0.7473   N.pl3     1 1      0.0000
    21 HN       3.0880  -1.1458  -1.4186   H         1 1      0.0000
    22 C        5.1433  -1.1311  -0.9073   C.3       1 1      0.0000
    23 H1A      5.2378  -1.9776  -1.5843   H         1 1      0.0000
    24 H1C      5.7226  -0.3052  -1.3148   H         1 1      0.0000
    25 H1B      5.5799  -1.4113   0.0489   H         1 1      0.0000
    26 H10A    -0.9441  -0.3798  -1.7715   H         1 1      0.0000
    27 H10B    -0.5315   1.1155  -0.9134   H         1 1      0.0000
    28 H9B     -1.2213  -1.5491   0.3975   H         1 1      0.0000
    29 H5      -6.4319   1.0620   0.1895   H         1 1      0.0000
    30 H3      -3.3645  -1.7284  -0.8302   H         1 1      0.0000
    31 H12B     1.6035   1.3147   0.2996   H         1 1      0.0000
    32 C15      4.5142   1.9069   1.1726   C.3       1 1      0.0000
    33 H15A     5.0274   1.9992   0.2074   H         1 1      0.0000
    34 H15C     5.2310   2.1733   1.9591   H         1 1      0.0000
    35 OH       1.0900  -1.8042  -0.8083   O.3       1 1      0.0000
    36 OH1      0.6173  -2.2037  -1.5797   H         1 1      0.0000
    37 H22      1.4536  -0.0335  -1.8161   H         1 1      0.0000
    38 C16      3.3535   2.8739   1.2110   C.3       1 1      0.0000
    39 H16C     2.6126   2.5581   1.9425   H         1 1      0.0000
    40 H16A     3.6920   3.8721   1.4806   H         1 1      0.0000
    41 H16B     2.8674   2.9317   0.2394   H         1 1      0.0000
@<TRIPOS>BOND
     1     1     2   ar
     2     1     6   ar
     3     1    29    1
     4     2     3   ar
     5     2     7    1
     6     3     4   ar
     7     3    30    1
     8     4     5   ar
     9     4     8    1
    10     5     6   ar
    11     5     9    1
    12     6    10    1
    13     8    11    1
    14     8    12    1
    15     8    28    1
    16    11    13    1
    17    11    26    1
    18    11    27    1
    19    13    14    1
    20    14    15    1
    21    14    16    1
    22    14    31    1
    23    16    17    1
    24    16    20    2
    25    17    18    1
    26    17    19    1
    27    17    32    1
    28    20    21    1
    29    20    22    1
    30    22    23    1
    31    22    24    1
    32    22    25    1
    33    32    33    1
    34    32    34    1
    35    13    35    1
    36    35    36    1
    37    13    37    1
    38    32    38    1
    39    38    39    1
    40    38    40    1
    41    38    41    1
@<TRIPOS>SUBSTRUCTURE
     1 1           1 GROUP             0 ****  ****    0  
@<TRIPOS>MOLECULE
Molecule Name_00001_00094
    41    41     1     0     0
SMALL
NO_CHARGES
****
Generated from the CSD

@<TRIPOS>ATOM
     1 C5      -5.6109   0.7624   0.4671   C.ar      1 1      0.0000
     2 C4      -5.1067   1.1150  -0.7662   C.ar      1 1      0.0000
     3 C3      -3.8386   0.7045  -1.1424   C.ar      1 1      0.0000
     4 C8      -3.0592  -0.0639  -0.2915   C.ar      1 1      0.0000
     5 C7      -3.5786  -0.4102   0.9464   C.ar      1 1      0.0000
     6 C6      -4.8466  -0.0002   1.3236   C.ar      1 1      0.0000
     7 H4      -5.7045   1.7155  -1.4438   H         1 1      0.0000
     8 C9      -1.6758  -0.5084  -0.7007   C.3       1 1      0.0000
     9 H7      -2.9845  -1.0097   1.6281   H         1 1      0.0000
    10 H6      -5.2391  -0.2800   2.2957   H         1 1      0.0000
    11 C10     -0.5746   0.0569   0.1942   C.3       1 1      0.0000
    12 H9A     -1.6311  -1.6041  -0.6727   H         1 1      0.0000
    13 C11      0.8406  -0.3593  -0.1734   C.3       1 1      0.0000
    14 C12      1.8760   0.2630   0.7568   C.3       1 1      0.0000
    15 H12A     1.7117  -0.1084   1.7759   H         1 1      0.0000
    16 C13      3.2849  -0.0418   0.3474   C.2       1 1      0.0000
    17 C14      4.0617   1.0502  -0.3250   C.3       1 1      0.0000
    18 H14B     3.3958   1.5819  -1.0159   H         1 1      0.0000
    19 H14A     4.8690   0.6056  -0.9196   H         1 1      0.0000
    20 N        3.8176  -1.2228   0.5899   N.pl3     1 1      0.0000
    21 HN       3.2505  -1.8742   1.1324   H         1 1      0.0000
    22 C        5.1769  -1.6436   0.2828   C.3       1 1      0.0000
    23 H1A      5.5518  -2.3230   1.0454   H         1 1      0.0000
    24 H1C      5.2140  -2.1568  -0.6759   H         1 1      0.0000
    25 H1B      5.8452  -0.7867   0.2339   H         1 1      0.0000
    26 H10A    -0.6318   1.1520   0.1619   H         1 1      0.0000
    27 H10B    -0.7710  -0.2588   1.2262   H         1 1      0.0000
    28 H9B     -1.4920  -0.1932  -1.7352   H         1 1      0.0000
    29 H5      -6.6043   1.0835   0.7621   H         1 1      0.0000
    30 H3      -3.4504   0.9878  -2.1152   H         1 1      0.0000
    31 H12B     1.7358   1.3509   0.7716   H         1 1      0.0000
    32 C15      4.6584   2.0523   0.6459   C.3       1 1      0.0000
    33 H15A     5.3242   1.5268   1.3415   H         1 1      0.0000
    34 H15C     3.8520   2.5074   1.2343   H         1 1      0.0000
    35 OH       0.9406  -1.7842  -0.0994   O.3       1 1      0.0000
    36 OH1      0.2907  -2.1938  -0.7220   H         1 1      0.0000
    37 H22      1.0504  -0.0384  -1.2055   H         1 1      0.0000
    38 C16      5.4355   3.1417  -0.0563   C.3       1 1      0.0000
    39 H16C     4.7934   3.6951  -0.7383   H         1 1      0.0000
    40 H16A     5.8510   3.8441   0.6632   H         1 1      0.0000
    41 H16B     6.2571   2.7198  -0.6315   H         1 1      0.0000
@<TRIPOS>BOND
     1     1     2   ar
     2     1     6   ar
     3     1    29    1
     4     2     3   ar
     5     2     7    1
     6     3     4   ar
     7     3    30    1
     8     4     5   ar
     9     4     8    1
    10     5     6   ar
    11     5     9    1
    12     6    10    1
    13     8    11    1
    14     8    12    1
    15     8    28    1
    16    11    13    1
    17    11    26    1
    18    11    27    1
    19    13    14    1
    20    14    15    1
    21    14    16    1
    22    14    31    1
    23    16    17    1
    24    16    20    2
    25    17    18    1
    26    17    19    1
    27    17    32    1
    28    20    21    1
    29    20    22    1
    30    22    23    1
    31    22    24    1
    32    22    25    1
    33    32    33    1
    34    32    34    1
    35    13    35    1
    36    35    36    1
    37    13    37    1
    38    32    38    1
    39    38    39    1
    40    38    40    1
    41    38    41    1
@<TRIPOS>SUBSTRUCTURE
     1 1           1 GROUP             0 ****  ****    0  
@<TRIPOS>MOLECULE
Molecule Name_00001_00095
    41    41     1     0     0
SMALL
NO_CHARGES
****
Generated from the CSD

@<TRIPOS>ATOM
     1 C5      -5.5592  -0.1548   0.5685   C.ar      1 1      0.0000
     2 C4      -4.9828   0.9512   1.1548   C.ar      1 1      0.0000
     3 C3      -3.6796   1.3029   0.8451   C.ar      1 1      0.0000
     4 C8      -2.9367   0.5543  -0.0548   C.ar      1 1      0.0000
     5 C7      -3.5288  -0.5564  -0.6360   C.ar      1 1      0.0000
     6 C6      -4.8320  -0.9089  -0.3270   C.ar      1 1      0.0000
     7 H4      -5.5513   1.5478   1.8606   H         1 1      0.0000
     8 C9      -1.5151   0.9362  -0.3896   C.3       1 1      0.0000
     9 H7      -2.9643  -1.1568  -1.3417   H         1 1      0.0000
    10 H6      -5.2813  -1.7807  -0.7909   H         1 1      0.0000
    11 C10     -0.4964  -0.1264   0.0181   C.3       1 1      0.0000
    12 H9A     -1.4379   1.1086  -1.4702   H         1 1      0.0000
    13 C11      0.9531   0.2071  -0.2962   C.3       1 1      0.0000
    14 C12      1.9021  -0.8958   0.1598   C.3       1 1      0.0000
    15 H12A     1.6799  -1.8135  -0.3987   H         1 1      0.0000
    16 C13      3.3447  -0.5415  -0.0374   C.2       1 1      0.0000
    17 C14      4.1309  -0.1421   1.1750   C.3       1 1      0.0000
    18 H14B     5.1937  -0.3368   0.9854   H         1 1      0.0000
    19 H14A     3.8266  -0.7658   2.0244   H         1 1      0.0000
    20 N        3.8964  -0.5994  -1.2331   N.pl3     1 1      0.0000
    21 HN       3.3142  -0.9686  -1.9846   H         1 1      0.0000
    22 C        5.2862  -0.3202  -1.5642   C.3       1 1      0.0000
    23 H1A      5.5382  -0.7244  -2.5424   H         1 1      0.0000
    24 H1C      5.4698   0.7520  -1.5832   H         1 1      0.0000
    25 H1B      5.9553  -0.7652  -0.8309   H         1 1      0.0000
    26 H10A    -0.5857  -0.2936   1.0986   H         1 1      0.0000
    27 H10B    -0.7532  -1.0647  -0.4888   H         1 1      0.0000
    28 H9B     -1.2706   1.8780   0.1170   H         1 1      0.0000
    29 H5      -6.5803  -0.4305   0.8107   H         1 1      0.0000
    30 H3      -3.2346   2.1751   1.3125   H         1 1      0.0000
    31 H12B     1.7270  -1.1016   1.2230   H         1 1      0.0000
    32 C15      3.9618   1.3186   1.5500   C.3       1 1      0.0000
    33 H15A     2.9003   1.5209   1.7392   H         1 1      0.0000
    34 H15C     4.2764   1.9454   0.7065   H         1 1      0.0000
    35 OH       1.0928   0.3913  -1.7078   O.3       1 1      0.0000
    36 OH1      0.4998   1.1246  -2.0055   H         1 1      0.0000
    37 H22      1.2231   1.1436   0.2159   H         1 1      0.0000
    38 C16      4.7638   1.6954   2.7741   C.3       1 1      0.0000
    39 H16C     5.8254   1.5253   2.6071   H         1 1      0.0000
    40 H16A     4.6233   2.7461   3.0189   H         1 1      0.0000
    41 H16B     4.4568   1.1031   3.6336   H         1 1      0.0000
@<TRIPOS>BOND
     1     1     2   ar
     2     1     6   ar
     3     1    29    1
     4     2     3   ar
     5     2     7    1
     6     3     4   ar
     7     3    30    1
     8     4     5   ar
     9     4     8    1
    10     5     6   ar
    11     5     9    1
    12     6    10    1
    13     8    11    1
    14     8    12    1
    15     8    28    1
    16    11    13    1
    17    11    26    1
    18    11    27    1
    19    13    14    1
    20    14    15    1
    21    14    16    1
    22    14    31    1
    23    16    17    1
    24    16    20    2
    25    17    18    1
    26    17    19    1
    27    17    32    1
    28    20    21    1
    29    20    22    1
    30    22    23    1
    31    22    24    1
    32    22    25    1
    33    32    33    1
    34    32    34    1
    35    13    35    1
    36    35    36    1
    37    13    37    1
    38    32    38    1
    39    38    39    1
    40    38    40    1
    41    38    41    1
@<TRIPOS>SUBSTRUCTURE
     1 1           1 GROUP             0 ****  ****    0  
@<TRIPOS>MOLECULE
Molecule Name_00001_00096
    41    41     1     0     0
SMALL
NO_CHARGES
****
Generated from the CSD

@<TRIPOS>ATOM
     1 C5      -5.5612   0.6523  -0.0618   C.ar      1 1      0.0000
     2 C4      -4.7677   1.1082  -1.0923   C.ar      1 1      0.0000
     3 C3      -3.4396   0.7233  -1.1700   C.ar      1 1      0.0000
     4 C8      -2.8884  -0.1224  -0.2197   C.ar      1 1      0.0000
     5 C7      -3.6980  -0.5722   0.8119   C.ar      1 1      0.0000
     6 C6      -5.0262  -0.1879   0.8906   C.ar      1 1      0.0000
     7 H4      -5.1843   1.7701  -1.8442   H         1 1      0.0000
     8 C9      -1.4399  -0.5390  -0.3030   C.3       1 1      0.0000
     9 H7      -3.2860  -1.2335   1.5670   H         1 1      0.0000
    10 H6      -5.6469  -0.5491   1.7039   H         1 1      0.0000
    11 C10     -0.6089  -0.0623   0.8866   C.3       1 1      0.0000
    12 H9A     -1.3869  -1.6333  -0.3598   H         1 1      0.0000
    13 C11      0.8594  -0.4547   0.8539   C.3       1 1      0.0000
    14 C12      1.6258   0.3001  -0.2267   C.3       1 1      0.0000
    15 H12A     1.5631   1.3766  -0.0249   H         1 1      0.0000
    16 C13      3.0681  -0.0988  -0.3045   C.2       1 1      0.0000
    17 C14      4.0597   0.9606  -0.6817   C.3       1 1      0.0000
    18 H14B     3.6236   1.5863  -1.4702   H         1 1      0.0000
    19 H14A     4.9571   0.4844  -1.0953   H         1 1      0.0000
    20 N        3.4425  -1.3330  -0.0322   N.pl3     1 1      0.0000
    21 HN       2.7157  -1.9643   0.3044   H         1 1      0.0000
    22 C        4.8036  -1.8491  -0.0321   C.3       1 1      0.0000
    23 H1A      4.9308  -2.6012   0.7437   H         1 1      0.0000
    24 H1C      5.0422  -2.3068  -0.9899   H         1 1      0.0000
    25 H1B      5.5199  -1.0506   0.1491   H         1 1      0.0000
    26 H10A    -0.6729   1.0317   0.9360   H         1 1      0.0000
    27 H10B    -1.0545  -0.4660   1.8041   H         1 1      0.0000
    28 H9B     -1.0059  -0.1356  -1.2262   H         1 1      0.0000
    29 H5      -6.6018   0.9534  -0.0007   H         1 1      0.0000
    30 H3      -2.8229   1.0881  -1.9848   H         1 1      0.0000
    31 H12B     1.1510   0.1145  -1.1980   H         1 1      0.0000
    32 C15      4.4638   1.8500   0.4795   C.3       1 1      0.0000
    33 H15A     4.8991   1.2302   1.2729   H         1 1      0.0000
    34 H15C     3.5697   2.3368   0.8881   H         1 1      0.0000
    35 OH       1.4452  -0.1721   2.1278   O.3       1 1      0.0000
    36 OH1      0.9674  -0.6778   2.8306   H         1 1      0.0000
    37 H22      0.9359  -1.5351   0.6560   H         1 1      0.0000
    38 C16      5.4630   2.9085   0.0733   C.3       1 1      0.0000
    39 H16C     5.0491   3.5534  -0.6992   H         1 1      0.0000
    40 H16A     5.7339   3.5299   0.9242   H         1 1      0.0000
    41 H16B     6.3708   2.4527  -0.3163   H         1 1      0.0000
@<TRIPOS>BOND
     1     1     2   ar
     2     1     6   ar
     3     1    29    1
     4     2     3   ar
     5     2     7    1
     6     3     4   ar
     7     3    30    1
     8     4     5   ar
     9     4     8    1
    10     5     6   ar
    11     5     9    1
    12     6    10    1
    13     8    11    1
    14     8    12    1
    15     8    28    1
    16    11    13    1
    17    11    26    1
    18    11    27    1
    19    13    14    1
    20    14    15    1
    21    14    16    1
    22    14    31    1
    23    16    17    1
    24    16    20    2
    25    17    18    1
    26    17    19    1
    27    17    32    1
    28    20    21    1
    29    20    22    1
    30    22    23    1
    31    22    24    1
    32    22    25    1
    33    32    33    1
    34    32    34    1
    35    13    35    1
    36    35    36    1
    37    13    37    1
    38    32    38    1
    39    38    39    1
    40    38    40    1
    41    38    41    1
@<TRIPOS>SUBSTRUCTURE
     1 1           1 GROUP             0 ****  ****    0  
@<TRIPOS>MOLECULE
Molecule Name_00001_00097
    41    41     1     0     0
SMALL
NO_CHARGES
****
Generated from the CSD

@<TRIPOS>ATOM
     1 C5      -5.5401   0.5403   0.3410   C.ar      1 1      0.0000
     2 C4      -4.6945   1.6177   0.4942   C.ar      1 1      0.0000
     3 C3      -3.3501   1.4964   0.1846   C.ar      1 1      0.0000
     4 C8      -2.8343   0.2973  -0.2826   C.ar      1 1      0.0000
     5 C7      -3.6962  -0.7785  -0.4307   C.ar      1 1      0.0000
     6 C6      -5.0408  -0.6582  -0.1214   C.ar      1 1      0.0000
     7 H4      -5.0829   2.5631   0.8583   H         1 1      0.0000
     8 C9      -1.3682   0.1645  -0.6168   C.3       1 1      0.0000
     9 H7      -3.3126  -1.7264  -0.7934   H         1 1      0.0000
    10 H6      -5.7025  -1.5093  -0.2433   H         1 1      0.0000
    11 C10     -0.6425  -0.8538   0.2604   C.3       1 1      0.0000
    12 H9A     -1.2683  -0.1342  -1.6676   H         1 1      0.0000
    13 C11      0.8388  -1.0277  -0.0337   C.3       1 1      0.0000
    14 C12      1.6490   0.1941   0.3852   C.3       1 1      0.0000
    15 H12A     1.5299   0.3504   1.4644   H         1 1      0.0000
    16 C13      3.1078   0.0621   0.0690   C.2       1 1      0.0000
    17 C14      4.0809   0.7036   1.0121   C.3       1 1      0.0000
    18 H14B     5.0453   0.1875   0.9278   H         1 1      0.0000
    19 H14A     3.7250   0.5740   2.0415   H         1 1      0.0000
    20 N        3.5104  -0.6100  -0.9910   N.pl3     1 1      0.0000
    21 HN       2.7872  -1.0907  -1.5257   H         1 1      0.0000
    22 C        4.8874  -0.8487  -1.3982   C.3       1 1      0.0000
    23 H1A      4.9414  -1.6650  -2.1156   H         1 1      0.0000
    24 H1C      5.3113   0.0391  -1.8628   H         1 1      0.0000
    25 H1B      5.5045  -1.1094  -0.5410   H         1 1      0.0000
    26 H10A    -0.7529  -0.5476   1.3080   H         1 1      0.0000
    27 H10B    -1.1354  -1.8266   0.1416   H         1 1      0.0000
    28 H9B     -0.8865   1.1432  -0.5008   H         1 1      0.0000
    29 H5      -6.5935   0.6350   0.5832   H         1 1      0.0000
    30 H3      -2.6924   2.3503   0.3093   H         1 1      0.0000
    31 H12B     1.2515   1.0795  -0.1262   H         1 1      0.0000
    32 C15      4.2938   2.1823   0.7462   C.3       1 1      0.0000
    33 H15A     3.3325   2.7045   0.8269   H         1 1      0.0000
    34 H15C     4.6609   2.3144  -0.2791   H         1 1      0.0000
    35 OH       1.3218  -2.1745   0.6717   O.3       1 1      0.0000
    36 OH1      0.8159  -2.9750   0.3866   H         1 1      0.0000
    37 H22      0.9715  -1.1897  -1.1146   H         1 1      0.0000
    38 C16      5.2780   2.8046   1.7094   C.3       1 1      0.0000
    39 H16C     6.2492   2.3197   1.6354   H         1 1      0.0000
    40 H16A     5.4105   3.8631   1.4953   H         1 1      0.0000
    41 H16B     4.9280   2.7075   2.7349   H         1 1      0.0000
@<TRIPOS>BOND
     1     1     2   ar
     2     1     6   ar
     3     1    29    1
     4     2     3   ar
     5     2     7    1
     6     3     4   ar
     7     3    30    1
     8     4     5   ar
     9     4     8    1
    10     5     6   ar
    11     5     9    1
    12     6    10    1
    13     8    11    1
    14     8    12    1
    15     8    28    1
    16    11    13    1
    17    11    26    1
    18    11    27    1
    19    13    14    1
    20    14    15    1
    21    14    16    1
    22    14    31    1
    23    16    17    1
    24    16    20    2
    25    17    18    1
    26    17    19    1
    27    17    32    1
    28    20    21    1
    29    20    22    1
    30    22    23    1
    31    22    24    1
    32    22    25    1
    33    32    33    1
    34    32    34    1
    35    13    35    1
    36    35    36    1
    37    13    37    1
    38    32    38    1
    39    38    39    1
    40    38    40    1
    41    38    41    1
@<TRIPOS>SUBSTRUCTURE
     1 1           1 GROUP             0 ****  ****    0  
@<TRIPOS>MOLECULE
Molecule Name_00001_00098
    41    41     1     0     0
SMALL
NO_CHARGES
****
Generated from the CSD

@<TRIPOS>ATOM
     1 C5      -4.4184  -0.7257  -1.3188   C.ar      1 1      0.0000
     2 C4      -3.2218  -0.1180  -1.6322   C.ar      1 1      0.0000
     3 C3      -2.4293   0.4158  -0.6298   C.ar      1 1      0.0000
     4 C8      -2.8223   0.3484   0.6980   C.ar      1 1      0.0000
     5 C7      -4.0289  -0.2646   0.9985   C.ar      1 1      0.0000
     6 C6      -4.8222  -0.7988  -0.0032   C.ar      1 1      0.0000
     7 H4      -2.8999  -0.0578  -2.6666   H         1 1      0.0000
     8 C9      -1.9597   0.9334   1.7900   C.3       1 1      0.0000
     9 H7      -4.3558  -0.3266   2.0312   H         1 1      0.0000
    10 H6      -5.7636  -1.2759   0.2484   H         1 1      0.0000
    11 C10     -0.6519   1.5262   1.2691   C.3       1 1      0.0000
    12 H9A     -2.5251   1.7173   2.3089   H         1 1      0.0000
    13 C11      0.3852   0.5132   0.8115   C.3       1 1      0.0000
    14 C12      1.6471   1.1890   0.2865   C.3       1 1      0.0000
    15 H12A     2.1220   1.7458   1.1037   H         1 1      0.0000
    16 C13      2.6358   0.2164  -0.2809   C.2       1 1      0.0000
    17 C14      3.9240   0.7698  -0.8121   C.3       1 1      0.0000
    18 H14B     3.7124   1.7054  -1.3443   H         1 1      0.0000
    19 H14A     4.3480   0.0648  -1.5376   H         1 1      0.0000
    20 N        2.3804  -1.0767  -0.2915   N.pl3     1 1      0.0000
    21 HN       1.5222  -1.3740   0.1724   H         1 1      0.0000
    22 C        3.2580  -2.1328  -0.7747   C.3       1 1      0.0000
    23 H1A      3.1444  -3.0333  -0.1747   H         1 1      0.0000
    24 H1C      3.0271  -2.3829  -1.8081   H         1 1      0.0000
    25 H1B      4.2995  -1.8224  -0.7263   H         1 1      0.0000
    26 H10A    -0.8847   2.1873   0.4252   H         1 1      0.0000
    27 H10B    -0.2092   2.1397   2.0635   H         1 1      0.0000
    28 H9B     -1.7296   0.1484   2.5210   H         1 1      0.0000
    29 H5      -5.0395  -1.1443  -2.1039   H         1 1      0.0000
    30 H3      -1.4892   0.8927  -0.8868   H         1 1      0.0000
    31 H12B     1.3693   1.9107  -0.4916   H         1 1      0.0000
    32 C15      4.9537   1.0449   0.2681   C.3       1 1      0.0000
    33 H15A     5.1687   0.1133   0.8059   H         1 1      0.0000
    34 H15C     4.5369   1.7588   0.9892   H         1 1      0.0000
    35 OH       0.7296  -0.3306   1.9138   O.3       1 1      0.0000
    36 OH1     -0.0553  -0.8741   2.1717   H         1 1      0.0000
    37 H22     -0.0484  -0.1040   0.0094   H         1 1      0.0000
    38 C16      6.2418   1.6016  -0.2929   C.3       1 1      0.0000
    39 H16C     6.0619   2.5393  -0.8144   H         1 1      0.0000
    40 H16A     6.9600   1.7887   0.5028   H         1 1      0.0000
    41 H16B     6.6898   0.9030  -0.9965   H         1 1      0.0000
@<TRIPOS>BOND
     1     1     2   ar
     2     1     6   ar
     3     1    29    1
     4     2     3   ar
     5     2     7    1
     6     3     4   ar
     7     3    30    1
     8     4     5   ar
     9     4     8    1
    10     5     6   ar
    11     5     9    1
    12     6    10    1
    13     8    11    1
    14     8    12    1
    15     8    28    1
    16    11    13    1
    17    11    26    1
    18    11    27    1
    19    13    14    1
    20    14    15    1
    21    14    16    1
    22    14    31    1
    23    16    17    1
    24    16    20    2
    25    17    18    1
    26    17    19    1
    27    17    32    1
    28    20    21    1
    29    20    22    1
    30    22    23    1
    31    22    24    1
    32    22    25    1
    33    32    33    1
    34    32    34    1
    35    13    35    1
    36    35    36    1
    37    13    37    1
    38    32    38    1
    39    38    39    1
    40    38    40    1
    41    38    41    1
@<TRIPOS>SUBSTRUCTURE
     1 1           1 GROUP             0 ****  ****    0  
@<TRIPOS>MOLECULE
Molecule Name_00001_00099
    41    41     1     0     0
SMALL
NO_CHARGES
****
Generated from the CSD

@<TRIPOS>ATOM
     1 C5      -4.2068   0.2995  -1.5750   C.ar      1 1      0.0000
     2 C4      -2.9722   0.8990  -1.4504   C.ar      1 1      0.0000
     3 C3      -2.2464   0.7598  -0.2791   C.ar      1 1      0.0000
     4 C8      -2.7451   0.0192   0.7816   C.ar      1 1      0.0000
     5 C7      -3.9889  -0.5772   0.6427   C.ar      1 1      0.0000
     6 C6      -4.7154  -0.4386  -0.5282   C.ar      1 1      0.0000
     7 H4      -2.5678   1.4813  -2.2717   H         1 1      0.0000
     8 C9      -1.9552  -0.1295   2.0594   C.3       1 1      0.0000
     9 H7      -4.3982  -1.1598   1.4615   H         1 1      0.0000
    10 H6      -5.6871  -0.9122  -0.6215   H         1 1      0.0000
    11 C10     -0.5937   0.5610   2.0072   C.3       1 1      0.0000
    12 H9A     -2.5371   0.2911   2.8887   H         1 1      0.0000
    13 C11      0.4467  -0.1169   1.1303   C.3       1 1      0.0000
    14 C12      1.7652   0.6488   1.1169   C.3       1 1      0.0000
    15 H12A     2.1898   0.6491   2.1284   H         1 1      0.0000
    16 C13      2.7673   0.0667   0.1669   C.2       1 1      0.0000
    17 C14      4.1089   0.7308   0.0839   C.3       1 1      0.0000
    18 H14B     4.8429  -0.0019  -0.2735   H         1 1      0.0000
    19 H14A     4.4182   1.0467   1.0877   H         1 1      0.0000
    20 N        2.4764  -0.9999  -0.5508   N.pl3     1 1      0.0000
    21 HN       1.5759  -1.4410  -0.3645   H         1 1      0.0000
    22 C        3.3587  -1.6898  -1.4806   C.3       1 1      0.0000
    23 H1A      2.9899  -2.6915  -1.6911   H         1 1      0.0000
    24 H1C      3.4254  -1.1486  -2.4221   H         1 1      0.0000
    25 H1B      4.3619  -1.7775  -1.0690   H         1 1      0.0000
    26 H10A    -0.7398   1.5847   1.6410   H         1 1      0.0000
    27 H10B    -0.1978   0.6235   3.0283   H         1 1      0.0000
    28 H9B     -1.8063  -1.1970   2.2638   H         1 1      0.0000
    29 H5      -4.7756   0.4081  -2.4926   H         1 1      0.0000
    30 H3      -1.2756   1.2361  -0.1905   H         1 1      0.0000
    31 H12B     1.5707   1.6913   0.8363   H         1 1      0.0000
    32 C15      4.1306   1.9341  -0.8404   C.3       1 1      0.0000
    33 H15A     3.3969   2.6704  -0.4898   H         1 1      0.0000
    34 H15C     3.8328   1.6192  -1.8482   H         1 1      0.0000
    35 OH       0.6784  -1.4402   1.6214   O.3       1 1      0.0000
    36 OH1     -0.1244  -1.9961   1.4645   H         1 1      0.0000
    37 H22      0.0604  -0.1791   0.1011   H         1 1      0.0000
    38 C16      5.4929   2.5848  -0.9065   C.3       1 1      0.0000
    39 H16C     6.2385   1.8823  -1.2728   H         1 1      0.0000
    40 H16A     5.4784   3.4430  -1.5751   H         1 1      0.0000
    41 H16B     5.8048   2.9275   0.0780   H         1 1      0.0000
@<TRIPOS>BOND
     1     1     2   ar
     2     1     6   ar
     3     1    29    1
     4     2     3   ar
     5     2     7    1
     6     3     4   ar
     7     3    30    1
     8     4     5   ar
     9     4     8    1
    10     5     6   ar
    11     5     9    1
    12     6    10    1
    13     8    11    1
    14     8    12    1
    15     8    28    1
    16    11    13    1
    17    11    26    1
    18    11    27    1
    19    13    14    1
    20    14    15    1
    21    14    16    1
    22    14    31    1
    23    16    17    1
    24    16    20    2
    25    17    18    1
    26    17    19    1
    27    17    32    1
    28    20    21    1
    29    20    22    1
    30    22    23    1
    31    22    24    1
    32    22    25    1
    33    32    33    1
    34    32    34    1
    35    13    35    1
    36    35    36    1
    37    13    37    1
    38    32    38    1
    39    38    39    1
    40    38    40    1
    41    38    41    1
@<TRIPOS>SUBSTRUCTURE
     1 1           1 GROUP             0 ****  ****    0  
@<TRIPOS>MOLECULE
Molecule Name_00001_00100
    41    41     1     0     0
SMALL
NO_CHARGES
****
Generated from the CSD

@<TRIPOS>ATOM
     1 C5      -4.6833   0.1604  -1.2981   C.ar      1 1      0.0000
     2 C4      -3.5159  -0.3175  -1.8533   C.ar      1 1      0.0000
     3 C3      -2.4052  -0.5369  -1.0557   C.ar      1 1      0.0000
     4 C8      -2.4476  -0.2822   0.3064   C.ar      1 1      0.0000
     5 C7      -3.6280   0.1994   0.8511   C.ar      1 1      0.0000
     6 C6      -4.7393   0.4191   0.0544   C.ar      1 1      0.0000
     7 H4      -3.4670  -0.5223  -2.9177   H         1 1      0.0000
     8 C9      -1.2357  -0.5184   1.1749   C.3       1 1      0.0000
     9 H7      -3.6819   0.4067   1.9148   H         1 1      0.0000
    10 H6      -5.6560   0.7958   0.4960   H         1 1      0.0000
    11 C10     -0.2925   0.6819   1.2284   C.3       1 1      0.0000
    12 H9A     -1.5681  -0.7566   2.1929   H         1 1      0.0000
    13 C11      0.9464   0.4983   2.0901   C.3       1 1      0.0000
    14 C12      1.9237  -0.4978   1.4759   C.3       1 1      0.0000
    15 H12A     1.4592  -1.4915   1.4583   H         1 1      0.0000
    16 C13      2.3359  -0.1268   0.0838   C.2       1 1      0.0000
    17 C14      3.3759   0.9423  -0.0681   C.3       1 1      0.0000
    18 H14B     3.1806   1.7308   0.6691   H         1 1      0.0000
    19 H14A     3.2887   1.3920  -1.0647   H         1 1      0.0000
    20 N        1.8108  -0.7361  -0.9604   N.pl3     1 1      0.0000
    21 HN       1.1799  -1.5129  -0.7633   H         1 1      0.0000
    22 C        2.1410  -0.5052  -2.3592   C.3       1 1      0.0000
    23 H1A      2.0842  -1.4317  -2.9268   H         1 1      0.0000
    24 H1C      1.4511   0.2081  -2.8052   H         1 1      0.0000
    25 H1B      3.1490  -0.1083  -2.4581   H         1 1      0.0000
    26 H10A     0.0296   0.9135   0.2056   H         1 1      0.0000
    27 H10B    -0.8526   1.5456   1.6073   H         1 1      0.0000
    28 H9B     -0.6865  -1.3871   0.7913   H         1 1      0.0000
    29 H5      -5.5538   0.3322  -1.9227   H         1 1      0.0000
    30 H3      -1.4907  -0.9127  -1.5024   H         1 1      0.0000
    31 H12B     2.8177  -0.5586   2.1088   H         1 1      0.0000
    32 C15      4.7939   0.4365   0.1225   C.3       1 1      0.0000
    33 H15A     4.9954  -0.3541  -0.6107   H         1 1      0.0000
    34 H15C     4.8876  -0.0035   1.1230   H         1 1      0.0000
    35 OH       1.5989   1.7620   2.2421   O.3       1 1      0.0000
    36 OH1      0.9774   2.4063   2.6623   H         1 1      0.0000
    37 H22      0.6401   0.1315   3.0820   H         1 1      0.0000
    38 C16      5.8222   1.5326  -0.0356   C.3       1 1      0.0000
    39 H16C     5.6597   2.3222   0.6951   H         1 1      0.0000
    40 H16A     6.8276   1.1415   0.1060   H         1 1      0.0000
    41 H16B     5.7667   1.9732  -1.0288   H         1 1      0.0000
@<TRIPOS>BOND
     1     1     2   ar
     2     1     6   ar
     3     1    29    1
     4     2     3   ar
     5     2     7    1
     6     3     4   ar
     7     3    30    1
     8     4     5   ar
     9     4     8    1
    10     5     6   ar
    11     5     9    1
    12     6    10    1
    13     8    11    1
    14     8    12    1
    15     8    28    1
    16    11    13    1
    17    11    26    1
    18    11    27    1
    19    13    14    1
    20    14    15    1
    21    14    16    1
    22    14    31    1
    23    16    17    1
    24    16    20    2
    25    17    18    1
    26    17    19    1
    27    17    32    1
    28    20    21    1
    29    20    22    1
    30    22    23    1
    31    22    24    1
    32    22    25    1
    33    32    33    1
    34    32    34    1
    35    13    35    1
    36    35    36    1
    37    13    37    1
    38    32    38    1
    39    38    39    1
    40    38    40    1
    41    38    41    1
@<TRIPOS>SUBSTRUCTURE
     1 1           1 GROUP             0 ****  ****    0  
@<TRIPOS>MOLECULE
Molecule Name_00001_00101
    41    41     1     0     0
SMALL
NO_CHARGES
****
Generated from the CSD

@<TRIPOS>ATOM
     1 C5      -4.2710   0.3727   1.5123   C.ar      1 1      0.0000
     2 C4      -3.0362   0.7153   2.0195   C.ar      1 1      0.0000
     3 C3      -1.9387   0.8018   1.1792   C.ar      1 1      0.0000
     4 C8      -2.0617   0.5478  -0.1782   C.ar      1 1      0.0000
     5 C7      -3.3095   0.2030  -0.6744   C.ar      1 1      0.0000
     6 C6      -4.4076   0.1162   0.1651   C.ar      1 1      0.0000
     7 H4      -2.9236   0.9178   3.0794   H         1 1      0.0000
     8 C9      -0.8645   0.6389  -1.0932   C.3       1 1      0.0000
     9 H7      -3.4272  -0.0014  -1.7334   H         1 1      0.0000
    10 H6      -5.3776  -0.1542  -0.2388   H         1 1      0.0000
    11 C10     -0.0683  -0.6622  -1.1712   C.3       1 1      0.0000
    12 H9A     -1.2058   0.9094  -2.1001   H         1 1      0.0000
    13 C11      1.1498  -0.6264  -2.0800   C.3       1 1      0.0000
    14 C12      2.2285   0.3109  -1.5483   C.3       1 1      0.0000
    15 H12A     1.8376   1.3358  -1.5339   H         1 1      0.0000
    16 C13      2.6907  -0.0548  -0.1705   C.2       1 1      0.0000
    17 C14      1.9433   0.5331   0.9886   C.3       1 1      0.0000
    18 H14B     2.0363  -0.1435   1.8471   H         1 1      0.0000
    19 H14A     0.8784   0.6011   0.7346   H         1 1      0.0000
    20 N        3.7057  -0.8772   0.0046   N.pl3     1 1      0.0000
    21 HN       4.0967  -1.3017  -0.8362   H         1 1      0.0000
    22 C        4.2363  -1.3455   1.2767   C.3       1 1      0.0000
    23 H1A      4.8029  -2.2647   1.1433   H         1 1      0.0000
    24 H1C      4.8970  -0.6011   1.7161   H         1 1      0.0000
    25 H1B      3.4319  -1.5425   1.9822   H         1 1      0.0000
    26 H10A     0.2636  -0.9249  -0.1591   H         1 1      0.0000
    27 H10B    -0.7379  -1.4574  -1.5215   H         1 1      0.0000
    28 H9B     -0.2050   1.4403  -0.7378   H         1 1      0.0000
    29 H5      -5.1311   0.3051   2.1702   H         1 1      0.0000
    30 H3      -0.9707   1.0717   1.5882   H         1 1      0.0000
    31 H12B     3.0877   0.2910  -2.2302   H         1 1      0.0000
    32 C15      2.4424   1.9075   1.3942   C.3       1 1      0.0000
    33 H15A     2.3541   2.5891   0.5392   H         1 1      0.0000
    34 H15C     3.5046   1.8406   1.6600   H         1 1      0.0000
    35 OH       1.6885  -1.9469  -2.1885   O.3       1 1      0.0000
    36 OH1      1.0006  -2.5553  -2.5556   H         1 1      0.0000
    37 H22      0.8399  -0.2825  -3.0790   H         1 1      0.0000
    38 C16      1.6734   2.4774   2.5636   C.3       1 1      0.0000
    39 H16C     1.7543   1.8270   3.4321   H         1 1      0.0000
    40 H16A     2.0580   3.4577   2.8372   H         1 1      0.0000
    41 H16B     0.6191   2.5837   2.3168   H         1 1      0.0000
@<TRIPOS>BOND
     1     1     2   ar
     2     1     6   ar
     3     1    29    1
     4     2     3   ar
     5     2     7    1
     6     3     4   ar
     7     3    30    1
     8     4     5   ar
     9     4     8    1
    10     5     6   ar
    11     5     9    1
    12     6    10    1
    13     8    11    1
    14     8    12    1
    15     8    28    1
    16    11    13    1
    17    11    26    1
    18    11    27    1
    19    13    14    1
    20    14    15    1
    21    14    16    1
    22    14    31    1
    23    16    17    1
    24    16    20    2
    25    17    18    1
    26    17    19    1
    27    17    32    1
    28    20    21    1
    29    20    22    1
    30    22    23    1
    31    22    24    1
    32    22    25    1
    33    32    33    1
    34    32    34    1
    35    13    35    1
    36    35    36    1
    37    13    37    1
    38    32    38    1
    39    38    39    1
    40    38    40    1
    41    38    41    1
@<TRIPOS>SUBSTRUCTURE
     1 1           1 GROUP             0 ****  ****    0  
@<TRIPOS>MOLECULE
Molecule Name_00001_00102
    41    41     1     0     0
SMALL
NO_CHARGES
****
Generated from the CSD

@<TRIPOS>ATOM
     1 C5      -4.4199  -0.5990   1.3467   C.ar      1 1      0.0000
     2 C4      -4.2680   0.7707   1.3326   C.ar      1 1      0.0000
     3 C3      -3.1899   1.3443   0.6795   C.ar      1 1      0.0000
     4 C8      -2.2508   0.5564   0.0318   C.ar      1 1      0.0000
     5 C7      -2.4155  -0.8200   0.0552   C.ar      1 1      0.0000
     6 C6      -3.4933  -1.3945   0.7080   C.ar      1 1      0.0000
     7 H4      -4.9947   1.4011   1.8343   H         1 1      0.0000
     8 C9      -1.0739   1.1819  -0.6772   C.3       1 1      0.0000
     9 H7      -1.6911  -1.4548  -0.4442   H         1 1      0.0000
    10 H6      -3.6085  -2.4734   0.7167   H         1 1      0.0000
    11 C10     -0.1514   0.1544  -1.3301   C.3       1 1      0.0000
    12 H9A     -1.4463   1.8679  -1.4480   H         1 1      0.0000
    13 C11      1.0518   0.7304  -2.0591   C.3       1 1      0.0000
    14 C12      2.0918   1.2838  -1.0911   C.3       1 1      0.0000
    15 H12A     1.6154   2.0268  -0.4395   H         1 1      0.0000
    16 C13      2.7208   0.2215  -0.2419   C.2       1 1      0.0000
    17 C14      3.5754   0.6690   0.9058   C.3       1 1      0.0000
    18 H14B     4.1691   1.5343   0.5862   H         1 1      0.0000
    19 H14A     4.2752  -0.1334   1.1693   H         1 1      0.0000
    20 N        2.5098  -1.0553  -0.4922   N.pl3     1 1      0.0000
    21 HN       1.8430  -1.2687  -1.2338   H         1 1      0.0000
    22 C        3.0233  -2.1868   0.2661   C.3       1 1      0.0000
    23 H1A      2.3010  -3.0002   0.2819   H         1 1      0.0000
    24 H1C      3.9446  -2.5605  -0.1758   H         1 1      0.0000
    25 H1B      3.2333  -1.9000   1.2943   H         1 1      0.0000
    26 H10A     0.2108  -0.5282  -0.5515   H         1 1      0.0000
    27 H10B    -0.7397  -0.4343  -2.0448   H         1 1      0.0000
    28 H9B     -0.4963   1.7726   0.0445   H         1 1      0.0000
    29 H5      -5.2646  -1.0487   1.8580   H         1 1      0.0000
    30 H3      -3.0788   2.4236   0.6746   H         1 1      0.0000
    31 H12B     2.8762   1.7952  -1.6626   H         1 1      0.0000
    32 C15      2.7780   1.0527   2.1385   C.3       1 1      0.0000
    33 H15A     2.1801   0.1920   2.4625   H         1 1      0.0000
    34 H15C     2.0851   1.8633   1.8810   H         1 1      0.0000
    35 OH       1.6510  -0.2975  -2.8530   O.3       1 1      0.0000
    36 OH1      0.9879  -0.6443  -3.4996   H         1 1      0.0000
    37 H22      0.7132   1.5427  -2.7207   H         1 1      0.0000
    38 C16      3.6620   1.4997   3.2798   C.3       1 1      0.0000
    39 H16C     4.2522   2.3677   2.9935   H         1 1      0.0000
    40 H16A     3.0642   1.7679   4.1484   H         1 1      0.0000
    41 H16B     4.3463   0.7058   3.5714   H         1 1      0.0000
@<TRIPOS>BOND
     1     1     2   ar
     2     1     6   ar
     3     1    29    1
     4     2     3   ar
     5     2     7    1
     6     3     4   ar
     7     3    30    1
     8     4     5   ar
     9     4     8    1
    10     5     6   ar
    11     5     9    1
    12     6    10    1
    13     8    11    1
    14     8    12    1
    15     8    28    1
    16    11    13    1
    17    11    26    1
    18    11    27    1
    19    13    14    1
    20    14    15    1
    21    14    16    1
    22    14    31    1
    23    16    17    1
    24    16    20    2
    25    17    18    1
    26    17    19    1
    27    17    32    1
    28    20    21    1
    29    20    22    1
    30    22    23    1
    31    22    24    1
    32    22    25    1
    33    32    33    1
    34    32    34    1
    35    13    35    1
    36    35    36    1
    37    13    37    1
    38    32    38    1
    39    38    39    1
    40    38    40    1
    41    38    41    1
@<TRIPOS>SUBSTRUCTURE
     1 1           1 GROUP             0 ****  ****    0  
@<TRIPOS>MOLECULE
Molecule Name_00001_00103
    41    41     1     0     0
SMALL
NO_CHARGES
****
Generated from the CSD

@<TRIPOS>ATOM
     1 C5      -4.7526  -1.0104   0.8115   C.ar      1 1      0.0000
     2 C4      -4.6442   0.3018   1.2187   C.ar      1 1      0.0000
     3 C3      -3.5346   1.0507   0.8640   C.ar      1 1      0.0000
     4 C8      -2.5201   0.4981   0.0975   C.ar      1 1      0.0000
     5 C7      -2.6418  -0.8233  -0.3040   C.ar      1 1      0.0000
     6 C6      -3.7510  -1.5731   0.0501   C.ar      1 1      0.0000
     7 H4      -5.4299   0.7490   1.8185   H         1 1      0.0000
     8 C9      -1.3092   1.3138  -0.2861   C.3       1 1      0.0000
     9 H7      -1.8584  -1.2756  -0.9031   H         1 1      0.0000
    10 H6      -3.8317  -2.6059  -0.2726   H         1 1      0.0000
    11 C10     -0.3031   0.5340  -1.1303   C.3       1 1      0.0000
    12 H9A     -1.6382   2.1967  -0.8480   H         1 1      0.0000
    13 C11      0.9373   1.3087  -1.5452   C.3       1 1      0.0000
    14 C12      1.8750   1.5536  -0.3681   C.3       1 1      0.0000
    15 H12A     1.3226   2.0650   0.4298   H         1 1      0.0000
    16 C13      2.4653   0.2897   0.1793   C.2       1 1      0.0000
    17 C14      3.2068   0.3788   1.4793   C.3       1 1      0.0000
    18 H14B     3.1938  -0.6070   1.9604   H         1 1      0.0000
    19 H14A     2.6866   1.0787   2.1445   H         1 1      0.0000
    20 N        2.3169  -0.8551  -0.4569   N.pl3     1 1      0.0000
    21 HN       1.7212  -0.8410  -1.2846   H         1 1      0.0000
    22 C        2.8019  -2.1585  -0.0267   C.3       1 1      0.0000
    23 H1A      2.3680  -2.9508  -0.6331   H         1 1      0.0000
    24 H1C      3.8845  -2.2162  -0.1182   H         1 1      0.0000
    25 H1B      2.5398  -2.3449   1.0126   H         1 1      0.0000
    26 H10A     0.0151  -0.3480  -0.5608   H         1 1      0.0000
    27 H10B    -0.8108   0.1824  -2.0369   H         1 1      0.0000
    28 H9B     -0.8128   1.6652   0.6269   H         1 1      0.0000
    29 H5      -5.6219  -1.5974   1.0889   H         1 1      0.0000
    30 H3      -3.4583   2.0828   1.1900   H         1 1      0.0000
    31 H12B     2.6873   2.2171  -0.6897   H         1 1      0.0000
    32 C15      4.6484   0.8263   1.3225   C.3       1 1      0.0000
    33 H15A     4.6689   1.8112   0.8399   H         1 1      0.0000
    34 H15C     5.1746   0.1216   0.6667   H         1 1      0.0000
    35 OH       1.6331   0.5686  -2.5522   O.3       1 1      0.0000
    36 OH1      1.0375   0.4270  -3.3289   H         1 1      0.0000
    37 H22      0.6288   2.2795  -1.9629   H         1 1      0.0000
    38 C16      5.3731   0.9079   2.6460   C.3       1 1      0.0000
    39 H16C     5.3874  -0.0622   3.1384   H         1 1      0.0000
    40 H16A     6.4022   1.2306   2.5030   H         1 1      0.0000
    41 H16B     4.8844   1.6178   3.3102   H         1 1      0.0000
@<TRIPOS>BOND
     1     1     2   ar
     2     1     6   ar
     3     1    29    1
     4     2     3   ar
     5     2     7    1
     6     3     4   ar
     7     3    30    1
     8     4     5   ar
     9     4     8    1
    10     5     6   ar
    11     5     9    1
    12     6    10    1
    13     8    11    1
    14     8    12    1
    15     8    28    1
    16    11    13    1
    17    11    26    1
    18    11    27    1
    19    13    14    1
    20    14    15    1
    21    14    16    1
    22    14    31    1
    23    16    17    1
    24    16    20    2
    25    17    18    1
    26    17    19    1
    27    17    32    1
    28    20    21    1
    29    20    22    1
    30    22    23    1
    31    22    24    1
    32    22    25    1
    33    32    33    1
    34    32    34    1
    35    13    35    1
    36    35    36    1
    37    13    37    1
    38    32    38    1
    39    38    39    1
    40    38    40    1
    41    38    41    1
@<TRIPOS>SUBSTRUCTURE
     1 1           1 GROUP             0 ****  ****    0  
@<TRIPOS>MOLECULE
Molecule Name_00001_00104
    41    41     1     0     0
SMALL
NO_CHARGES
****
Generated from the CSD

@<TRIPOS>ATOM
     1 C5      -5.3622   0.3163   0.5786   C.ar      1 1      0.0000
     2 C4      -4.4686  -0.0928   1.5449   C.ar      1 1      0.0000
     3 C3      -3.1063   0.0346   1.3311   C.ar      1 1      0.0000
     4 C8      -2.6201   0.5732   0.1497   C.ar      1 1      0.0000
     5 C7      -3.5303   0.9794  -0.8139   C.ar      1 1      0.0000
     6 C6      -4.8929   0.8524  -0.6011   C.ar      1 1      0.0000
     7 H4      -4.8333  -0.5158   2.4751   H         1 1      0.0000
     8 C9      -1.1349   0.7089  -0.0843   C.3       1 1      0.0000
     9 H7      -3.1708   1.4021  -1.7463   H         1 1      0.0000
    10 H6      -5.5925   1.1756  -1.3649   H         1 1      0.0000
    11 C10     -0.5046  -0.5466  -0.6837   C.3       1 1      0.0000
    12 H9A     -0.9568   1.5549  -0.7595   H         1 1      0.0000
    13 C11      0.9916  -0.4648  -0.9403   C.3       1 1      0.0000
    14 C12      1.7913  -0.4530   0.3578   C.3       1 1      0.0000
    15 H12A     1.6313  -1.4011   0.8860   H         1 1      0.0000
    16 C13      3.2606  -0.2601   0.1351   C.2       1 1      0.0000
    17 C14      3.7267   1.1093  -0.2588   C.3       1 1      0.0000
    18 H14B     2.9791   1.5577  -0.9247   H         1 1      0.0000
    19 H14A     4.6634   1.0235  -0.8231   H         1 1      0.0000
    20 N        4.1048  -1.2589   0.2996   N.pl3     1 1      0.0000
    21 HN       3.7135  -2.1303   0.6569   H         1 1      0.0000
    22 C        5.5523  -1.2073   0.1541   C.3       1 1      0.0000
    23 H1A      6.0356  -1.8695   0.8694   H         1 1      0.0000
    24 H1C      5.8502  -1.5140  -0.8463   H         1 1      0.0000
    25 H1B      5.9221  -0.1982   0.3228   H         1 1      0.0000
    26 H10A    -0.6927  -1.3860  -0.0029   H         1 1      0.0000
    27 H10B    -1.0070  -0.7664  -1.6338   H         1 1      0.0000
    28 H9B     -0.6433   0.9344   0.8701   H         1 1      0.0000
    29 H5      -6.4296   0.2168   0.7459   H         1 1      0.0000
    30 H3      -2.4109  -0.2909   2.0977   H         1 1      0.0000
    31 H12B     1.4185   0.3541   1.0004   H         1 1      0.0000
    32 C15      3.9459   2.0356   0.9230   C.3       1 1      0.0000
    33 H15A     4.4183   2.9613   0.5718   H         1 1      0.0000
    34 H15C     4.6330   1.5577   1.6321   H         1 1      0.0000
    35 OH       1.3912  -1.5908  -1.7266   O.3       1 1      0.0000
    36 OH1      0.8930  -1.5907  -2.5809   H         1 1      0.0000
    37 H22      1.2078   0.4582  -1.5003   H         1 1      0.0000
    38 C16      2.6568   2.3762   1.6343   C.3       1 1      0.0000
    39 H16C     2.3472   1.5598   2.2835   H         1 1      0.0000
    40 H16A     2.7776   3.2681   2.2456   H         1 1      0.0000
    41 H16B     1.8586   2.5613   0.9186   H         1 1      0.0000
@<TRIPOS>BOND
     1     1     2   ar
     2     1     6   ar
     3     1    29    1
     4     2     3   ar
     5     2     7    1
     6     3     4   ar
     7     3    30    1
     8     4     5   ar
     9     4     8    1
    10     5     6   ar
    11     5     9    1
    12     6    10    1
    13     8    11    1
    14     8    12    1
    15     8    28    1
    16    11    13    1
    17    11    26    1
    18    11    27    1
    19    13    14    1
    20    14    15    1
    21    14    16    1
    22    14    31    1
    23    16    17    1
    24    16    20    2
    25    17    18    1
    26    17    19    1
    27    17    32    1
    28    20    21    1
    29    20    22    1
    30    22    23    1
    31    22    24    1
    32    22    25    1
    33    32    33    1
    34    32    34    1
    35    13    35    1
    36    35    36    1
    37    13    37    1
    38    32    38    1
    39    38    39    1
    40    38    40    1
    41    38    41    1
@<TRIPOS>SUBSTRUCTURE
     1 1           1 GROUP             0 ****  ****    0  
@<TRIPOS>MOLECULE
Molecule Name_00001_00105
    41    41     1     0     0
SMALL
NO_CHARGES
****
Generated from the CSD

@<TRIPOS>ATOM
     1 C5      -5.5009   0.2855   0.4905   C.ar      1 1      0.0000
     2 C4      -4.6102   0.0010   1.5030   C.ar      1 1      0.0000
     3 C3      -3.2484   0.1346   1.2894   C.ar      1 1      0.0000
     4 C8      -2.7599   0.5548   0.0619   C.ar      1 1      0.0000
     5 C7      -3.6672   0.8364  -0.9479   C.ar      1 1      0.0000
     6 C6      -5.0292   0.7031  -0.7353   C.ar      1 1      0.0000
     7 H4      -4.9768  -0.3284   2.4696   H         1 1      0.0000
     8 C9      -1.2753   0.6971  -0.1715   C.3       1 1      0.0000
     9 H7      -3.3058   1.1652  -1.9166   H         1 1      0.0000
    10 H6      -5.7265   0.9280  -1.5356   H         1 1      0.0000
    11 C10     -0.6124  -0.6011  -0.6279   C.3       1 1      0.0000
    12 H9A     -1.1069   1.4702  -0.9315   H         1 1      0.0000
    13 C11      0.8846  -0.5145  -0.8780   C.3       1 1      0.0000
    14 C12      1.6690  -0.3474   0.4188   C.3       1 1      0.0000
    15 H12A     1.5225  -1.2371   1.0436   H         1 1      0.0000
    16 C13      3.1365  -0.1474   0.1904   C.2       1 1      0.0000
    17 C14      3.5798   1.1856  -0.3333   C.3       1 1      0.0000
    18 H14B     2.8592   1.5249  -1.0876   H         1 1      0.0000
    19 H14A     4.5512   1.0735  -0.8302   H         1 1      0.0000
    20 N        3.9983  -1.1076   0.4599   N.pl3     1 1      0.0000
    21 HN       3.6204  -1.9473   0.8985   H         1 1      0.0000
    22 C        5.4459  -1.0410   0.3221   C.3       1 1      0.0000
    23 H1A      5.9351  -1.6001   1.1170   H         1 1      0.0000
    24 H1C      5.7620  -1.4602  -0.6308   H         1 1      0.0000
    25 H1B      5.7919  -0.0107   0.3700   H         1 1      0.0000
    26 H10A    -0.7910  -1.3671   0.1367   H         1 1      0.0000
    27 H10B    -1.0992  -0.9315  -1.5537   H         1 1      0.0000
    28 H9B     -0.7994   1.0334   0.7579   H         1 1      0.0000
    29 H5      -6.5679   0.1813   0.6575   H         1 1      0.0000
    30 H3      -2.5553  -0.0924   2.0927   H         1 1      0.0000
    31 H12B     1.2723   0.5152   0.9683   H         1 1      0.0000
    32 C15      3.6963   2.2487   0.7433   C.3       1 1      0.0000
    33 H15A     2.7354   2.3396   1.2647   H         1 1      0.0000
    34 H15C     3.9139   3.2153   0.2725   H         1 1      0.0000
    35 OH       1.3164  -1.7088  -1.5360   O.3       1 1      0.0000
    36 OH1      0.8281  -1.8105  -2.3900   H         1 1      0.0000
    37 H22      1.0882   0.3481  -1.5311   H         1 1      0.0000
    38 C16      4.7782   1.9326   1.7499   C.3       1 1      0.0000
    39 H16C     5.7482   1.8580   1.2629   H         1 1      0.0000
    40 H16A     4.8386   2.7104   2.5083   H         1 1      0.0000
    41 H16B     4.5761   0.9873   2.2493   H         1 1      0.0000
@<TRIPOS>BOND
     1     1     2   ar
     2     1     6   ar
     3     1    29    1
     4     2     3   ar
     5     2     7    1
     6     3     4   ar
     7     3    30    1
     8     4     5   ar
     9     4     8    1
    10     5     6   ar
    11     5     9    1
    12     6    10    1
    13     8    11    1
    14     8    12    1
    15     8    28    1
    16    11    13    1
    17    11    26    1
    18    11    27    1
    19    13    14    1
    20    14    15    1
    21    14    16    1
    22    14    31    1
    23    16    17    1
    24    16    20    2
    25    17    18    1
    26    17    19    1
    27    17    32    1
    28    20    21    1
    29    20    22    1
    30    22    23    1
    31    22    24    1
    32    22    25    1
    33    32    33    1
    34    32    34    1
    35    13    35    1
    36    35    36    1
    37    13    37    1
    38    32    38    1
    39    38    39    1
    40    38    40    1
    41    38    41    1
@<TRIPOS>SUBSTRUCTURE
     1 1           1 GROUP             0 ****  ****    0  
@<TRIPOS>MOLECULE
Molecule Name_00001_00106
    41    41     1     0     0
SMALL
NO_CHARGES
****
Generated from the CSD

@<TRIPOS>ATOM
     1 C5      -5.5498   0.1191  -0.1151   C.ar      1 1      0.0000
     2 C4      -4.7514  -0.7438  -0.8343   C.ar      1 1      0.0000
     3 C3      -3.3905  -0.8038  -0.5844   C.ar      1 1      0.0000
     4 C8      -2.8109  -0.0030   0.3877   C.ar      1 1      0.0000
     5 C7      -3.6259   0.8611   1.1026   C.ar      1 1      0.0000
     6 C6      -4.9869   0.9218   0.8535   C.ar      1 1      0.0000
     7 H4      -5.1899  -1.3775  -1.5981   H         1 1      0.0000
     8 C9      -1.3270  -0.0664   0.6575   C.3       1 1      0.0000
     9 H7      -3.1922   1.4976   1.8667   H         1 1      0.0000
    10 H6      -5.6114   1.6030   1.4221   H         1 1      0.0000
    11 C10     -0.5131   0.8606  -0.2432   C.3       1 1      0.0000
    12 H9A     -1.1438   0.2026   1.7051   H         1 1      0.0000
    13 C11      0.9895   0.8366  -0.0139   C.3       1 1      0.0000
    14 C12      1.6146  -0.4744  -0.4778   C.3       1 1      0.0000
    15 H12A     1.4284  -0.6002  -1.5515   H         1 1      0.0000
    16 C13      3.0909  -0.5365  -0.2277   C.2       1 1      0.0000
    17 C14      3.5446  -0.7717   1.1817   C.3       1 1      0.0000
    18 H14B     4.4952  -1.3188   1.1589   H         1 1      0.0000
    19 H14A     2.8109  -1.4041   1.6964   H         1 1      0.0000
    20 N        3.9492  -0.4058  -1.2195   N.pl3     1 1      0.0000
    21 HN       3.5535  -0.3411  -2.1572   H         1 1      0.0000
    22 C        5.4002  -0.4803  -1.1295   C.3       1 1      0.0000
    23 H1A      5.8339  -0.7343  -2.0944   H         1 1      0.0000
    24 H1C      5.8161   0.4735  -0.8117   H         1 1      0.0000
    25 H1B      5.7046  -1.2384  -0.4110   H         1 1      0.0000
    26 H10A    -0.7075   0.5855  -1.2873   H         1 1      0.0000
    27 H10B    -0.8693   1.8875  -0.0952   H         1 1      0.0000
    28 H9B     -0.9825  -1.0978   0.5126   H         1 1      0.0000
    29 H5      -6.6161   0.1662  -0.3103   H         1 1      0.0000
    30 H3      -2.7703  -1.4860  -1.1565   H         1 1      0.0000
    31 H12B     1.1286  -1.3073   0.0451   H         1 1      0.0000
    32 C15      3.7365   0.5073   1.9755   C.3       1 1      0.0000
    33 H15A     3.9687   0.2529   3.0170   H         1 1      0.0000
    34 H15C     2.7992   1.0774   1.9715   H         1 1      0.0000
    35 OH       1.5871   1.9202  -0.7312   O.3       1 1      0.0000
    36 OH1      1.2027   2.7758  -0.4177   H         1 1      0.0000
    37 H22      1.1886   0.9655   1.0613   H         1 1      0.0000
    38 C16      4.8443   1.3705   1.4175   C.3       1 1      0.0000
    39 H16C     4.6298   1.6568   0.3900   H         1 1      0.0000
    40 H16A     4.9590   2.2787   2.0055   H         1 1      0.0000
    41 H16B     5.7924   0.8368   1.4297   H         1 1      0.0000
@<TRIPOS>BOND
     1     1     2   ar
     2     1     6   ar
     3     1    29    1
     4     2     3   ar
     5     2     7    1
     6     3     4   ar
     7     3    30    1
     8     4     5   ar
     9     4     8    1
    10     5     6   ar
    11     5     9    1
    12     6    10    1
    13     8    11    1
    14     8    12    1
    15     8    28    1
    16    11    13    1
    17    11    26    1
    18    11    27    1
    19    13    14    1
    20    14    15    1
    21    14    16    1
    22    14    31    1
    23    16    17    1
    24    16    20    2
    25    17    18    1
    26    17    19    1
    27    17    32    1
    28    20    21    1
    29    20    22    1
    30    22    23    1
    31    22    24    1
    32    22    25    1
    33    32    33    1
    34    32    34    1
    35    13    35    1
    36    35    36    1
    37    13    37    1
    38    32    38    1
    39    38    39    1
    40    38    40    1
    41    38    41    1
@<TRIPOS>SUBSTRUCTURE
     1 1           1 GROUP             0 ****  ****    0  
@<TRIPOS>MOLECULE
Molecule Name_00001_00107
    41    41     1     0     0
SMALL
NO_CHARGES
****
Generated from the CSD

@<TRIPOS>ATOM
     1 C5      -5.5532   0.3694  -0.4102   C.ar      1 1      0.0000
     2 C4      -4.6086   0.7852  -1.3235   C.ar      1 1      0.0000
     3 C3      -3.2704   0.4899  -1.1235   C.ar      1 1      0.0000
     4 C8      -2.8598  -0.2251  -0.0090   C.ar      1 1      0.0000
     5 C7      -3.8206  -0.6360   0.9021   C.ar      1 1      0.0000
     6 C6      -5.1591  -0.3412   0.7030   C.ar      1 1      0.0000
     7 H4      -4.9140   1.3451  -2.2012   H         1 1      0.0000
     8 C9      -1.4006  -0.5440   0.2103   C.3       1 1      0.0000
     9 H7      -3.5203  -1.1954   1.7819   H         1 1      0.0000
    10 H6      -5.8991  -0.6704   1.4250   H         1 1      0.0000
    11 C10     -0.6486   0.5628   0.9469   C.3       1 1      0.0000
    12 H9A     -1.3222  -1.4738   0.7872   H         1 1      0.0000
    13 C11      0.8269   0.2935   1.1947   C.3       1 1      0.0000
    14 C12      1.6380   0.3403  -0.0955   C.3       1 1      0.0000
    15 H12A     1.6287   1.3647  -0.4878   H         1 1      0.0000
    16 C13      3.0587  -0.0975   0.0932   C.2       1 1      0.0000
    17 C14      4.0028   0.8748   0.7342   C.3       1 1      0.0000
    18 H14B     4.8288   0.3151   1.1902   H         1 1      0.0000
    19 H14A     3.4810   1.4084   1.5380   H         1 1      0.0000
    20 N        3.4489  -1.3006  -0.2775   N.pl3     1 1      0.0000
    21 HN       2.7218  -1.9287  -0.6197   H         1 1      0.0000
    22 C        4.7799  -1.8694  -0.1229   C.3       1 1      0.0000
    23 H1A      4.7453  -2.9550  -0.1874   H         1 1      0.0000
    24 H1C      5.4474  -1.5051  -0.9011   H         1 1      0.0000
    25 H1B      5.2058  -1.6005   0.8414   H         1 1      0.0000
    26 H10A    -0.7376   1.4877   0.3638   H         1 1      0.0000
    27 H10B    -1.1374   0.7284   1.9150   H         1 1      0.0000
    28 H9B     -0.9231  -0.7135  -0.7626   H         1 1      0.0000
    29 H5      -6.6017   0.6003  -0.5667   H         1 1      0.0000
    30 H3      -2.5343   0.8222  -1.8481   H         1 1      0.0000
    31 H12B     1.1610  -0.3071  -0.8417   H         1 1      0.0000
    32 C15      4.5781   1.8880  -0.2380   C.3       1 1      0.0000
    33 H15A     5.1664   2.6275   0.3191   H         1 1      0.0000
    34 H15C     3.7556   2.4192  -0.7328   H         1 1      0.0000
    35 OH       1.3333   1.2762   2.1023   O.3       1 1      0.0000
    36 OH1      0.8267   1.2348   2.9506   H         1 1      0.0000
    37 H22      0.9365  -0.7036   1.6485   H         1 1      0.0000
    38 C16      5.4556   1.2453  -1.2872   C.3       1 1      0.0000
    39 H16C     4.8913   0.5212  -1.8711   H         1 1      0.0000
    40 H16A     5.8533   1.9943  -1.9688   H         1 1      0.0000
    41 H16B     6.2939   0.7285  -0.8249   H         1 1      0.0000
@<TRIPOS>BOND
     1     1     2   ar
     2     1     6   ar
     3     1    29    1
     4     2     3   ar
     5     2     7    1
     6     3     4   ar
     7     3    30    1
     8     4     5   ar
     9     4     8    1
    10     5     6   ar
    11     5     9    1
    12     6    10    1
    13     8    11    1
    14     8    12    1
    15     8    28    1
    16    11    13    1
    17    11    26    1
    18    11    27    1
    19    13    14    1
    20    14    15    1
    21    14    16    1
    22    14    31    1
    23    16    17    1
    24    16    20    2
    25    17    18    1
    26    17    19    1
    27    17    32    1
    28    20    21    1
    29    20    22    1
    30    22    23    1
    31    22    24    1
    32    22    25    1
    33    32    33    1
    34    32    34    1
    35    13    35    1
    36    35    36    1
    37    13    37    1
    38    32    38    1
    39    38    39    1
    40    38    40    1
    41    38    41    1
@<TRIPOS>SUBSTRUCTURE
     1 1           1 GROUP             0 ****  ****    0  
@<TRIPOS>MOLECULE
Molecule Name_00001_00108
    41    41     1     0     0
SMALL
NO_CHARGES
****
Generated from the CSD

@<TRIPOS>ATOM
     1 C5      -5.4531   0.5330  -0.2645   C.ar      1 1      0.0000
     2 C4      -4.5149   1.0470  -1.1335   C.ar      1 1      0.0000
     3 C3      -3.1838   0.6841  -1.0142   C.ar      1 1      0.0000
     4 C8      -2.7738  -0.1974  -0.0258   C.ar      1 1      0.0000
     5 C7      -3.7280  -0.7056   0.8421   C.ar      1 1      0.0000
     6 C6      -5.0595  -0.3434   0.7236   C.ar      1 1      0.0000
     7 H4      -4.8200   1.7376  -1.9128   H         1 1      0.0000
     8 C9      -1.3222  -0.5902   0.1060   C.3       1 1      0.0000
     9 H7      -3.4280  -1.3958   1.6237   H         1 1      0.0000
    10 H6      -5.7943  -0.7504   1.4103   H         1 1      0.0000
    11 C10     -0.5159   0.3740   0.9739   C.3       1 1      0.0000
    12 H9A     -1.2635  -1.5958   0.5405   H         1 1      0.0000
    13 C11      0.9544   0.0256   1.1405   C.3       1 1      0.0000
    14 C12      1.7379   0.2334  -0.1509   C.3       1 1      0.0000
    15 H12A     1.7535   1.3034  -0.3925   H         1 1      0.0000
    16 C13      3.1474  -0.2681  -0.0643   C.2       1 1      0.0000
    17 C14      4.1374   0.5757   0.6812   C.3       1 1      0.0000
    18 H14B     4.9255  -0.0752   1.0795   H         1 1      0.0000
    19 H14A     3.6373   1.0502   1.5343   H         1 1      0.0000
    20 N        3.4894  -1.4176  -0.6111   N.pl3     1 1      0.0000
    21 HN       2.7344  -1.9694  -1.0183   H         1 1      0.0000
    22 C        4.8041  -2.0414  -0.5743   C.3       1 1      0.0000
    23 H1A      4.7295  -3.1100  -0.7648   H         1 1      0.0000
    24 H1C      5.4575  -1.6077  -1.3285   H         1 1      0.0000
    25 H1B      5.2711  -1.9022   0.3984   H         1 1      0.0000
    26 H10A    -0.5855   1.3760   0.5327   H         1 1      0.0000
    27 H10B    -0.9771   0.4128   1.9685   H         1 1      0.0000
    28 H9B     -0.8724  -0.6318  -0.8938   H         1 1      0.0000
    29 H5      -6.4961   0.8169  -0.3578   H         1 1      0.0000
    30 H3      -2.4527   1.0947  -1.7028   H         1 1      0.0000
    31 H12B     1.2237  -0.2860  -0.9689   H         1 1      0.0000
    32 C15      4.7794   1.6515  -0.1751   C.3       1 1      0.0000
    33 H15A     5.2315   1.1854  -1.0593   H         1 1      0.0000
    34 H15C     5.5823   2.1343   0.3957   H         1 1      0.0000
    35 OH       1.5147   0.8501   2.1663   O.3       1 1      0.0000
    36 OH1      1.0258   0.7020   3.0130   H         1 1      0.0000
    37 H22      1.0392  -1.0297   1.4427   H         1 1      0.0000
    38 C16      3.7875   2.7009  -0.6207   C.3       1 1      0.0000
    39 H16C     3.1556   3.0112   0.2089   H         1 1      0.0000
    40 H16A     4.3018   3.5804  -1.0024   H         1 1      0.0000
    41 H16B     3.1456   2.3145  -1.4096   H         1 1      0.0000
@<TRIPOS>BOND
     1     1     2   ar
     2     1     6   ar
     3     1    29    1
     4     2     3   ar
     5     2     7    1
     6     3     4   ar
     7     3    30    1
     8     4     5   ar
     9     4     8    1
    10     5     6   ar
    11     5     9    1
    12     6    10    1
    13     8    11    1
    14     8    12    1
    15     8    28    1
    16    11    13    1
    17    11    26    1
    18    11    27    1
    19    13    14    1
    20    14    15    1
    21    14    16    1
    22    14    31    1
    23    16    17    1
    24    16    20    2
    25    17    18    1
    26    17    19    1
    27    17    32    1
    28    20    21    1
    29    20    22    1
    30    22    23    1
    31    22    24    1
    32    22    25    1
    33    32    33    1
    34    32    34    1
    35    13    35    1
    36    35    36    1
    37    13    37    1
    38    32    38    1
    39    38    39    1
    40    38    40    1
    41    38    41    1
@<TRIPOS>SUBSTRUCTURE
     1 1           1 GROUP             0 ****  ****    0  
@<TRIPOS>MOLECULE
Molecule Name_00001_00109
    41    41     1     0     0
SMALL
NO_CHARGES
****
Generated from the CSD

@<TRIPOS>ATOM
     1 C5      -4.4513  -0.6046   1.4638   C.ar      1 1      0.0000
     2 C4      -4.1876   0.7398   1.3139   C.ar      1 1      0.0000
     3 C3      -3.1911   1.1611   0.4494   C.ar      1 1      0.0000
     4 C8      -2.4464   0.2443  -0.2767   C.ar      1 1      0.0000
     5 C7      -2.7217  -1.1048  -0.1151   C.ar      1 1      0.0000
     6 C6      -3.7180  -1.5271   0.7492   C.ar      1 1      0.0000
     7 H4      -4.7620   1.4698   1.8746   H         1 1      0.0000
     8 C9      -1.3581   0.7038  -1.2165   C.3       1 1      0.0000
     9 H7      -2.1495  -1.8389  -0.6727   H         1 1      0.0000
    10 H6      -3.9217  -2.5866   0.8641   H         1 1      0.0000
    11 C10     -0.0073   0.8859  -0.5272   C.3       1 1      0.0000
    12 H9A     -1.2507  -0.0316  -2.0234   H         1 1      0.0000
    13 C11      1.1263   1.3482  -1.4285   C.3       1 1      0.0000
    14 C12      2.4374   1.4938  -0.6639   C.3       1 1      0.0000
    15 H12A     2.2832   2.1692   0.1867   H         1 1      0.0000
    16 C13      2.9657   0.1856  -0.1591   C.2       1 1      0.0000
    17 C14      4.1035   0.2290   0.8163   C.3       1 1      0.0000
    18 H14B     4.7728   1.0532   0.5402   H         1 1      0.0000
    19 H14A     4.6779  -0.7026   0.7428   H         1 1      0.0000
    20 N        2.4314  -0.9541  -0.5503   N.pl3     1 1      0.0000
    21 HN       1.6037  -0.8881  -1.1424   H         1 1      0.0000
    22 C        2.8165  -2.2894  -0.1171   C.3       1 1      0.0000
    23 H1A      1.9481  -2.9425  -0.0626   H         1 1      0.0000
    24 H1C      3.5284  -2.7297  -0.8121   H         1 1      0.0000
    25 H1B      3.2794  -2.2582   0.8669   H         1 1      0.0000
    26 H10A    -0.1277   1.6191   0.2799   H         1 1      0.0000
    27 H10B     0.2806  -0.0697  -0.0718   H         1 1      0.0000
    28 H9B     -1.6584   1.6562  -1.6706   H         1 1      0.0000
    29 H5      -5.2321  -0.9350   2.1408   H         1 1      0.0000
    30 H3      -2.9908   2.2217   0.3389   H         1 1      0.0000
    31 H12B     3.1864   1.9515  -1.3218   H         1 1      0.0000
    32 C15      3.6589   0.4222   2.2543   C.3       1 1      0.0000
    33 H15A     4.5241   0.3010   2.9177   H         1 1      0.0000
    34 H15C     2.9282  -0.3543   2.5124   H         1 1      0.0000
    35 OH       1.3013   0.3963  -2.4816   O.3       1 1      0.0000
    36 OH1      0.4702   0.3363  -3.0141   H         1 1      0.0000
    37 H22      0.8594   2.3224  -1.8666   H         1 1      0.0000
    38 C16      3.0417   1.7816   2.4883   C.3       1 1      0.0000
    39 H16C     2.0173   1.8081   2.1228   H         1 1      0.0000
    40 H16A     3.0293   2.0220   3.5493   H         1 1      0.0000
    41 H16B     3.6059   2.5554   1.9720   H         1 1      0.0000
@<TRIPOS>BOND
     1     1     2   ar
     2     1     6   ar
     3     1    29    1
     4     2     3   ar
     5     2     7    1
     6     3     4   ar
     7     3    30    1
     8     4     5   ar
     9     4     8    1
    10     5     6   ar
    11     5     9    1
    12     6    10    1
    13     8    11    1
    14     8    12    1
    15     8    28    1
    16    11    13    1
    17    11    26    1
    18    11    27    1
    19    13    14    1
    20    14    15    1
    21    14    16    1
    22    14    31    1
    23    16    17    1
    24    16    20    2
    25    17    18    1
    26    17    19    1
    27    17    32    1
    28    20    21    1
    29    20    22    1
    30    22    23    1
    31    22    24    1
    32    22    25    1
    33    32    33    1
    34    32    34    1
    35    13    35    1
    36    35    36    1
    37    13    37    1
    38    32    38    1
    39    38    39    1
    40    38    40    1
    41    38    41    1
@<TRIPOS>SUBSTRUCTURE
     1 1           1 GROUP             0 ****  ****    0  
@<TRIPOS>MOLECULE
Molecule Name_00001_00110
    41    41     1     0     0
SMALL
NO_CHARGES
****
Generated from the CSD

@<TRIPOS>ATOM
     1 C5      -4.4402   1.0965   1.2605   C.ar      1 1      0.0000
     2 C4      -4.2168   1.3831  -0.0689   C.ar      1 1      0.0000
     3 C3      -3.2157   0.7250  -0.7636   C.ar      1 1      0.0000
     4 C8      -2.4260  -0.2280  -0.1388   C.ar      1 1      0.0000
     5 C7      -2.6611  -0.5053   1.1991   C.ar      1 1      0.0000
     6 C6      -3.6620   0.1522   1.8947   C.ar      1 1      0.0000
     7 H4      -4.8267   2.1260  -0.5723   H         1 1      0.0000
     8 C9      -1.3328  -0.9427  -0.8956   C.3       1 1      0.0000
     9 H7      -2.0534  -1.2466   1.7074   H         1 1      0.0000
    10 H6      -3.8338  -0.0765   2.9413   H         1 1      0.0000
    11 C10     -0.0040  -0.1895  -0.8844   C.3       1 1      0.0000
    12 H9A     -1.1840  -1.9355  -0.4533   H         1 1      0.0000
    13 C11      1.1336  -0.8653  -1.6330   C.3       1 1      0.0000
    14 C12      2.4219  -0.0529  -1.5634   C.3       1 1      0.0000
    15 H12A     2.2278   0.9597  -1.9382   H         1 1      0.0000
    16 C13      2.9787   0.0387  -0.1752   C.2       1 1      0.0000
    17 C14      4.0871   1.0200   0.0623   C.3       1 1      0.0000
    18 H14B     4.7675   0.9976  -0.7979   H         1 1      0.0000
    19 H14A     4.6596   0.7112   0.9454   H         1 1      0.0000
    20 N        2.4931  -0.7070   0.7971   N.pl3     1 1      0.0000
    21 HN       1.6803  -1.2789   0.5683   H         1 1      0.0000
    22 C        2.9096  -0.6970   2.1919   C.3       1 1      0.0000
    23 H1A      2.0576  -0.8546   2.8499   H         1 1      0.0000
    24 H1C      3.6354  -1.4847   2.3829   H         1 1      0.0000
    25 H1B      3.3672   0.2551   2.4520   H         1 1      0.0000
    26 H10A    -0.1657   0.8023  -1.3245   H         1 1      0.0000
    27 H10B     0.3045  -0.0473   0.1586   H         1 1      0.0000
    28 H9B     -1.6536  -1.0851  -1.9349   H         1 1      0.0000
    29 H5      -5.2246   1.6116   1.8051   H         1 1      0.0000
    30 H3      -3.0473   0.9581  -1.8098   H         1 1      0.0000
    31 H12B     3.1712  -0.5134  -2.2191   H         1 1      0.0000
    32 C15      3.6005   2.4433   0.2627   C.3       1 1      0.0000
    33 H15A     2.9992   2.7434  -0.6043   H         1 1      0.0000
    34 H15C     4.4661   3.1151   0.3180   H         1 1      0.0000
    35 OH       1.3630  -2.1571  -1.0631   O.3       1 1      0.0000
    36 OH1      0.5562  -2.7171  -1.1786   H         1 1      0.0000
    37 H22      0.8447  -0.9855  -2.6886   H         1 1      0.0000
    38 C16      2.7723   2.5973   1.5173   C.3       1 1      0.0000
    39 H16C     3.3517   2.3268   2.3976   H         1 1      0.0000
    40 H16A     2.4378   3.6260   1.6347   H         1 1      0.0000
    41 H16B     1.8933   1.9572   1.4801   H         1 1      0.0000
@<TRIPOS>BOND
     1     1     2   ar
     2     1     6   ar
     3     1    29    1
     4     2     3   ar
     5     2     7    1
     6     3     4   ar
     7     3    30    1
     8     4     5   ar
     9     4     8    1
    10     5     6   ar
    11     5     9    1
    12     6    10    1
    13     8    11    1
    14     8    12    1
    15     8    28    1
    16    11    13    1
    17    11    26    1
    18    11    27    1
    19    13    14    1
    20    14    15    1
    21    14    16    1
    22    14    31    1
    23    16    17    1
    24    16    20    2
    25    17    18    1
    26    17    19    1
    27    17    32    1
    28    20    21    1
    29    20    22    1
    30    22    23    1
    31    22    24    1
    32    22    25    1
    33    32    33    1
    34    32    34    1
    35    13    35    1
    36    35    36    1
    37    13    37    1
    38    32    38    1
    39    38    39    1
    40    38    40    1
    41    38    41    1
@<TRIPOS>SUBSTRUCTURE
     1 1           1 GROUP             0 ****  ****    0  
@<TRIPOS>MOLECULE
Molecule Name_00001_00111
    41    41     1     0     0
SMALL
NO_CHARGES
****
Generated from the CSD

@<TRIPOS>ATOM
     1 C5      -4.9279   1.1807   0.4041   C.ar      1 1      0.0000
     2 C4      -4.6215   0.7133  -0.8557   C.ar      1 1      0.0000
     3 C3      -3.4958  -0.0690  -1.0527   C.ar      1 1      0.0000
     4 C8      -2.6629  -0.3945   0.0067   C.ar      1 1      0.0000
     5 C7      -2.9826   0.0836   1.2682   C.ar      1 1      0.0000
     6 C6      -4.1081   0.8659   1.4663   C.ar      1 1      0.0000
     7 H4      -5.2637   0.9588  -1.6951   H         1 1      0.0000
     8 C9      -1.4342  -1.2445  -0.2090   C.3       1 1      0.0000
     9 H7      -2.3432  -0.1582   2.1108   H         1 1      0.0000
    10 H6      -4.3450   1.2318   2.4598   H         1 1      0.0000
    11 C10     -0.2040  -0.4311  -0.6067   C.3       1 1      0.0000
    12 H9A     -1.2151  -1.7944   0.7146   H         1 1      0.0000
    13 C11      1.0634  -1.2383  -0.8368   C.3       1 1      0.0000
    14 C12      2.2418  -0.3497  -1.2198   C.3       1 1      0.0000
    15 H12A     1.9696   0.2474  -2.0989   H         1 1      0.0000
    16 C13      2.6603   0.5714  -0.1145   C.2       1 1      0.0000
    17 C14      3.6268   1.6659  -0.4546   C.3       1 1      0.0000
    18 H14B     3.5067   2.4798   0.2711   H         1 1      0.0000
    19 H14A     3.3833   2.0676  -1.4458   H         1 1      0.0000
    20 N        2.1771   0.4272   1.1034   N.pl3     1 1      0.0000
    21 HN       1.4566  -0.2843   1.2249   H         1 1      0.0000
    22 C        2.4653   1.2651   2.2583   C.3       1 1      0.0000
    23 H1A      1.7023   1.1418   3.0241   H         1 1      0.0000
    24 H1C      3.4275   1.0036   2.6936   H         1 1      0.0000
    25 H1B      2.4957   2.3154   1.9762   H         1 1      0.0000
    26 H10A    -0.4361   0.1175  -1.5279   H         1 1      0.0000
    27 H10B    -0.0065   0.3057   0.1816   H         1 1      0.0000
    28 H9B     -1.6442  -1.9812  -0.9942   H         1 1      0.0000
    29 H5      -5.8099   1.7934   0.5588   H         1 1      0.0000
    30 H3      -3.2629  -0.4316  -2.0484   H         1 1      0.0000
    31 H12B     3.0927  -0.9839  -1.4976   H         1 1      0.0000
    32 C15      5.0759   1.2154  -0.4473   C.3       1 1      0.0000
    33 H15A     5.7090   2.0340  -0.8112   H         1 1      0.0000
    34 H15C     5.1934   0.3701  -1.1365   H         1 1      0.0000
    35 OH       1.3845  -1.9519   0.3605   O.3       1 1      0.0000
    36 OH1      0.6451  -2.5687   0.5859   H         1 1      0.0000
    37 H22      0.8840  -1.9612  -1.6477   H         1 1      0.0000
    38 C16      5.5433   0.8019   0.9290   C.3       1 1      0.0000
    39 H16C     4.9458  -0.0250   1.3070   H         1 1      0.0000
    40 H16A     6.5837   0.4846   0.9038   H         1 1      0.0000
    41 H16B     5.4583   1.6297   1.6300   H         1 1      0.0000
@<TRIPOS>BOND
     1     1     2   ar
     2     1     6   ar
     3     1    29    1
     4     2     3   ar
     5     2     7    1
     6     3     4   ar
     7     3    30    1
     8     4     5   ar
     9     4     8    1
    10     5     6   ar
    11     5     9    1
    12     6    10    1
    13     8    11    1
    14     8    12    1
    15     8    28    1
    16    11    13    1
    17    11    26    1
    18    11    27    1
    19    13    14    1
    20    14    15    1
    21    14    16    1
    22    14    31    1
    23    16    17    1
    24    16    20    2
    25    17    18    1
    26    17    19    1
    27    17    32    1
    28    20    21    1
    29    20    22    1
    30    22    23    1
    31    22    24    1
    32    22    25    1
    33    32    33    1
    34    32    34    1
    35    13    35    1
    36    35    36    1
    37    13    37    1
    38    32    38    1
    39    38    39    1
    40    38    40    1
    41    38    41    1
@<TRIPOS>SUBSTRUCTURE
     1 1           1 GROUP             0 ****  ****    0  
@<TRIPOS>MOLECULE
Molecule Name_00001_00112
    41    41     1     0     0
SMALL
NO_CHARGES
****
Generated from the CSD

@<TRIPOS>ATOM
     1 C5      -4.8276  -1.2621   0.3483   C.ar      1 1      0.0000
     2 C4      -4.5860  -0.1818   1.1692   C.ar      1 1      0.0000
     3 C3      -3.5183   0.6620   0.9124   C.ar      1 1      0.0000
     4 C8      -2.6795   0.4373  -0.1683   C.ar      1 1      0.0000
     5 C7      -2.9336  -0.6539  -0.9849   C.ar      1 1      0.0000
     6 C6      -4.0011  -1.4983  -0.7290   C.ar      1 1      0.0000
     7 H4      -5.2338   0.0080   2.0187   H         1 1      0.0000
     8 C9      -1.5138   1.3554  -0.4460   C.3       1 1      0.0000
     9 H7      -2.2883  -0.8486  -1.8351   H         1 1      0.0000
    10 H6      -4.1870  -2.3477  -1.3779   H         1 1      0.0000
    11 C10     -0.2455   0.9599   0.3076   C.3       1 1      0.0000
    12 H9A     -1.3053   1.3503  -1.5230   H         1 1      0.0000
    13 C11      0.9611   1.8520   0.0643   C.3       1 1      0.0000
    14 C12      2.1828   1.3817   0.8460   C.3       1 1      0.0000
    15 H12A     1.9259   1.3221   1.9108   H         1 1      0.0000
    16 C13      2.6877   0.0465   0.3901   C.2       1 1      0.0000
    17 C14      3.7093  -0.6368   1.2487   C.3       1 1      0.0000
    18 H14B     3.6552  -1.7175   1.0677   H         1 1      0.0000
    19 H14A     3.4665  -0.4654   2.3045   H         1 1      0.0000
    20 N        2.2311  -0.5056  -0.7163   N.pl3     1 1      0.0000
    21 HN       1.4722  -0.0150  -1.1891   H         1 1      0.0000
    22 C        2.6022  -1.8051  -1.2572   C.3       1 1      0.0000
    23 H1A      1.8482  -2.1616  -1.9559   H         1 1      0.0000
    24 H1C      3.5519  -1.7459  -1.7847   H         1 1      0.0000
    25 H1B      2.7022  -2.5407  -0.4619   H         1 1      0.0000
    26 H10A    -0.4669   0.9640   1.3820   H         1 1      0.0000
    27 H10B     0.0200  -0.0660   0.0240   H         1 1      0.0000
    28 H9B     -1.7917   2.3787  -0.1647   H         1 1      0.0000
    29 H5      -5.6641  -1.9233   0.5490   H         1 1      0.0000
    30 H3      -3.3362   1.5095   1.5650   H         1 1      0.0000
    31 H12B     2.9843   2.1228   0.7371   H         1 1      0.0000
    32 C15      5.1287  -0.1685   0.9865   C.3       1 1      0.0000
    33 H15A     5.3610  -0.3021  -0.0772   H         1 1      0.0000
    34 H15C     5.8251  -0.7913   1.5615   H         1 1      0.0000
    35 OH       1.2687   1.8480  -1.3326   O.3       1 1      0.0000
    36 OH1      0.4977   2.2005  -1.8417   H         1 1      0.0000
    37 H22      0.7138   2.8792   0.3739   H         1 1      0.0000
    38 C16      5.3350   1.2810   1.3605   C.3       1 1      0.0000
    39 H16C     4.7640   1.5346   2.2512   H         1 1      0.0000
    40 H16A     6.3851   1.4815   1.5626   H         1 1      0.0000
    41 H16B     5.0139   1.9369   0.5540   H         1 1      0.0000
@<TRIPOS>BOND
     1     1     2   ar
     2     1     6   ar
     3     1    29    1
     4     2     3   ar
     5     2     7    1
     6     3     4   ar
     7     3    30    1
     8     4     5   ar
     9     4     8    1
    10     5     6   ar
    11     5     9    1
    12     6    10    1
    13     8    11    1
    14     8    12    1
    15     8    28    1
    16    11    13    1
    17    11    26    1
    18    11    27    1
    19    13    14    1
    20    14    15    1
    21    14    16    1
    22    14    31    1
    23    16    17    1
    24    16    20    2
    25    17    18    1
    26    17    19    1
    27    17    32    1
    28    20    21    1
    29    20    22    1
    30    22    23    1
    31    22    24    1
    32    22    25    1
    33    32    33    1
    34    32    34    1
    35    13    35    1
    36    35    36    1
    37    13    37    1
    38    32    38    1
    39    38    39    1
    40    38    40    1
    41    38    41    1
@<TRIPOS>SUBSTRUCTURE
     1 1           1 GROUP             0 ****  ****    0  
@<TRIPOS>MOLECULE
Molecule Name_00001_00113
    41    41     1     0     0
SMALL
NO_CHARGES
****
Generated from the CSD

@<TRIPOS>ATOM
     1 C5      -5.5002   0.0072  -0.1142   C.ar      1 1      0.0000
     2 C4      -4.7038  -0.0551  -1.2373   C.ar      1 1      0.0000
     3 C3      -3.3292  -0.1657  -1.1099   C.ar      1 1      0.0000
     4 C8      -2.7336  -0.2161   0.1411   C.ar      1 1      0.0000
     5 C7      -3.5469  -0.1512   1.2620   C.ar      1 1      0.0000
     6 C6      -4.9216  -0.0406   1.1357   C.ar      1 1      0.0000
     7 H4      -5.1547  -0.0175  -2.2234   H         1 1      0.0000
     8 C9      -1.2350  -0.3333   0.2795   C.3       1 1      0.0000
     9 H7      -3.1009  -0.1874   2.2504   H         1 1      0.0000
    10 H6      -5.5445   0.0085   2.0227   H         1 1      0.0000
    11 C10     -0.5235   1.0182   0.2658   C.3       1 1      0.0000
    12 H9A     -1.0036  -0.8490   1.2197   H         1 1      0.0000
    13 C11      0.9894   0.9587   0.4022   C.3       1 1      0.0000
    14 C12      1.6507   0.3844  -0.8458   C.3       1 1      0.0000
    15 H12A     1.7814   1.1858  -1.5833   H         1 1      0.0000
    16 C13      2.9827  -0.2416  -0.5637   C.2       1 1      0.0000
    17 C14      4.1147   0.6732  -0.2041   C.3       1 1      0.0000
    18 H14B     3.9785   1.6259  -0.7306   H         1 1      0.0000
    19 H14A     5.0579   0.2346  -0.5520   H         1 1      0.0000
    20 N        3.1380  -1.5495  -0.6150   N.pl3     1 1      0.0000
    21 HN       2.2955  -2.1010  -0.7768   H         1 1      0.0000
    22 C        4.3573  -2.2924  -0.3313   C.3       1 1      0.0000
    23 H1A      4.1272  -3.2458   0.1396   H         1 1      0.0000
    24 H1C      4.9092  -2.4916  -1.2475   H         1 1      0.0000
    25 H1B      5.0051  -1.7310   0.3386   H         1 1      0.0000
    26 H10A    -0.7656   1.5262  -0.6759   H         1 1      0.0000
    27 H10B    -0.9212   1.6271   1.0871   H         1 1      0.0000
    28 H9B     -0.8485  -0.9485  -0.5425   H         1 1      0.0000
    29 H5      -6.5772   0.0936  -0.2136   H         1 1      0.0000
    30 H3      -2.7108  -0.2134  -2.0001   H         1 1      0.0000
    31 H12B     0.9878  -0.3702  -1.2869   H         1 1      0.0000
    32 C15      4.2185   0.9489   1.2846   C.3       1 1      0.0000
    33 H15A     4.3661   0.0010   1.8166   H         1 1      0.0000
    34 H15C     3.2759   1.3864   1.6361   H         1 1      0.0000
    35 OH       1.4883   2.2795   0.6311   O.3       1 1      0.0000
    36 OH1      1.0810   2.6488   1.4531   H         1 1      0.0000
    37 H22      1.2454   0.3244   1.2650   H         1 1      0.0000
    38 C16      5.3554   1.8868   1.6185   C.3       1 1      0.0000
    39 H16C     5.2238   2.8452   1.1206   H         1 1      0.0000
    40 H16A     5.4055   2.0658   2.6905   H         1 1      0.0000
    41 H16B     6.3075   1.4674   1.3001   H         1 1      0.0000
@<TRIPOS>BOND
     1     1     2   ar
     2     1     6   ar
     3     1    29    1
     4     2     3   ar
     5     2     7    1
     6     3     4   ar
     7     3    30    1
     8     4     5   ar
     9     4     8    1
    10     5     6   ar
    11     5     9    1
    12     6    10    1
    13     8    11    1
    14     8    12    1
    15     8    28    1
    16    11    13    1
    17    11    26    1
    18    11    27    1
    19    13    14    1
    20    14    15    1
    21    14    16    1
    22    14    31    1
    23    16    17    1
    24    16    20    2
    25    17    18    1
    26    17    19    1
    27    17    32    1
    28    20    21    1
    29    20    22    1
    30    22    23    1
    31    22    24    1
    32    22    25    1
    33    32    33    1
    34    32    34    1
    35    13    35    1
    36    35    36    1
    37    13    37    1
    38    32    38    1
    39    38    39    1
    40    38    40    1
    41    38    41    1
@<TRIPOS>SUBSTRUCTURE
     1 1           1 GROUP             0 ****  ****    0  
@<TRIPOS>MOLECULE
Molecule Name_00001_00114
    41    41     1     0     0
SMALL
NO_CHARGES
****
Generated from the CSD

@<TRIPOS>ATOM
     1 C5      -5.5638  -0.1086  -0.0845   C.ar      1 1      0.0000
     2 C4      -4.8463  -0.9033   0.7833   C.ar      1 1      0.0000
     3 C3      -3.5122  -0.6300   1.0351   C.ar      1 1      0.0000
     4 C8      -2.8789   0.4410   0.4236   C.ar      1 1      0.0000
     5 C7      -3.6126   1.2312  -0.4479   C.ar      1 1      0.0000
     6 C6      -4.9467   0.9587  -0.7004   C.ar      1 1      0.0000
     7 H4      -5.3277  -1.7449   1.2703   H         1 1      0.0000
     8 C9      -1.4238   0.7366   0.6958   C.3       1 1      0.0000
     9 H7      -3.1356   2.0734  -0.9382   H         1 1      0.0000
    10 H6      -5.5074   1.5870  -1.3847   H         1 1      0.0000
    11 C10     -0.4736  -0.0322  -0.2202   C.3       1 1      0.0000
    12 H9A     -1.2493   1.8122   0.5692   H         1 1      0.0000
    13 C11      1.0062   0.2281   0.0109   C.3       1 1      0.0000
    14 C12      1.8816  -0.5914  -0.9307   C.3       1 1      0.0000
    15 H12A     1.7683  -0.2064  -1.9516   H         1 1      0.0000
    16 C13      3.3318  -0.5584  -0.5546   C.2       1 1      0.0000
    17 C14      3.9078   0.7606  -0.1348   C.3       1 1      0.0000
    18 H14B     3.4074   1.5584  -0.6975   H         1 1      0.0000
    19 H14A     4.9727   0.7891  -0.3961   H         1 1      0.0000
    20 N        4.0601  -1.6568  -0.5782   N.pl3     1 1      0.0000
    21 HN       3.5667  -2.5246  -0.7867   H         1 1      0.0000
    22 C        5.4622  -1.7788  -0.2062   C.3       1 1      0.0000
    23 H1A      5.6545  -2.7421   0.2617   H         1 1      0.0000
    24 H1C      6.1020  -1.6939  -1.0820   H         1 1      0.0000
    25 H1B      5.7451  -0.9981   0.4966   H         1 1      0.0000
    26 H10A    -0.6601  -1.1052  -0.0886   H         1 1      0.0000
    27 H10B    -0.7118   0.2244  -1.2598   H         1 1      0.0000
    28 H9B     -1.1979   0.4823   1.7388   H         1 1      0.0000
    29 H5      -6.6091  -0.3222  -0.2819   H         1 1      0.0000
    30 H3      -2.9558  -1.2619   1.7194   H         1 1      0.0000
    31 H12B     1.5351  -1.6323  -0.9263   H         1 1      0.0000
    32 C15      3.7561   1.0408   1.3488   C.3       1 1      0.0000
    33 H15A     4.2254   0.2289   1.9181   H         1 1      0.0000
    34 H15C     2.6896   1.0558   1.6050   H         1 1      0.0000
    35 OH       1.2716   1.6186  -0.1939   O.3       1 1      0.0000
    36 OH1      0.7276   2.1549   0.4341   H         1 1      0.0000
    37 H22      1.2569  -0.0353   1.0501   H         1 1      0.0000
    38 C16      4.3819   2.3555   1.7533   C.3       1 1      0.0000
    39 H16C     3.9199   3.1831   1.2192   H         1 1      0.0000
    40 H16A     4.2582   2.5294   2.8202   H         1 1      0.0000
    41 H16B     5.4468   2.3605   1.5304   H         1 1      0.0000
@<TRIPOS>BOND
     1     1     2   ar
     2     1     6   ar
     3     1    29    1
     4     2     3   ar
     5     2     7    1
     6     3     4   ar
     7     3    30    1
     8     4     5   ar
     9     4     8    1
    10     5     6   ar
    11     5     9    1
    12     6    10    1
    13     8    11    1
    14     8    12    1
    15     8    28    1
    16    11    13    1
    17    11    26    1
    18    11    27    1
    19    13    14    1
    20    14    15    1
    21    14    16    1
    22    14    31    1
    23    16    17    1
    24    16    20    2
    25    17    18    1
    26    17    19    1
    27    17    32    1
    28    20    21    1
    29    20    22    1
    30    22    23    1
    31    22    24    1
    32    22    25    1
    33    32    33    1
    34    32    34    1
    35    13    35    1
    36    35    36    1
    37    13    37    1
    38    32    38    1
    39    38    39    1
    40    38    40    1
    41    38    41    1
@<TRIPOS>SUBSTRUCTURE
     1 1           1 GROUP             0 ****  ****    0  
@<TRIPOS>MOLECULE
Molecule Name_00001_00115
    41    41     1     0     0
SMALL
NO_CHARGES
****
Generated from the CSD

@<TRIPOS>ATOM
     1 C5      -3.7909   1.9739   0.0598   C.ar      1 1      0.0000
     2 C4      -4.3029   0.7428  -0.2889   C.ar      1 1      0.0000
     3 C3      -3.5599  -0.4059  -0.0733   C.ar      1 1      0.0000
     4 C8      -2.2966  -0.3386   0.4940   C.ar      1 1      0.0000
     5 C7      -1.7938   0.9065   0.8387   C.ar      1 1      0.0000
     6 C6      -2.5360   2.0558   0.6236   C.ar      1 1      0.0000
     7 H4      -5.2902   0.6733  -0.7333   H         1 1      0.0000
     8 C9      -1.4858  -1.5906   0.7258   C.3       1 1      0.0000
     9 H7      -0.8065   0.9815   1.2825   H         1 1      0.0000
    10 H6      -2.1286   3.0228   0.8994   H         1 1      0.0000
    11 C10     -0.6515  -1.9984  -0.4869   C.3       1 1      0.0000
    12 H9A     -0.8175  -1.4288   1.5806   H         1 1      0.0000
    13 C11      0.5070  -1.0724  -0.8211   C.3       1 1      0.0000
    14 C12      1.6227  -1.1611   0.2144   C.3       1 1      0.0000
    15 H12A     2.0403  -2.1755   0.2054   H         1 1      0.0000
    16 C13      2.7255  -0.1769  -0.0318   C.2       1 1      0.0000
    17 C14      2.4508   1.2630   0.2826   C.3       1 1      0.0000
    18 H14B     1.4267   1.5023  -0.0292   H         1 1      0.0000
    19 H14A     3.1308   1.8961  -0.3005   H         1 1      0.0000
    20 N        3.8952  -0.5751  -0.4908   N.pl3     1 1      0.0000
    21 HN       4.0255  -1.5817  -0.5899   H         1 1      0.0000
    22 C        5.0613   0.2595  -0.7411   C.3       1 1      0.0000
    23 H1A      5.9783  -0.2828  -0.5201   H         1 1      0.0000
    24 H1C      5.0952   0.5719  -1.7827   H         1 1      0.0000
    25 H1B      5.0379   1.1528  -0.1205   H         1 1      0.0000
    26 H10A    -0.2496  -3.0032  -0.3073   H         1 1      0.0000
    27 H10B    -1.3135  -2.0531  -1.3600   H         1 1      0.0000
    28 H9B     -2.1653  -2.4122   0.9842   H         1 1      0.0000
    29 H5      -4.3728   2.8740  -0.1087   H         1 1      0.0000
    30 H3      -3.9715  -1.3704  -0.3518   H         1 1      0.0000
    31 H12B     1.2008  -0.9827   1.2111   H         1 1      0.0000
    32 C15      2.6041   1.5994   1.7544   C.3       1 1      0.0000
    33 H15A     3.6261   1.3605   2.0735   H         1 1      0.0000
    34 H15C     1.9168   0.9759   2.3395   H         1 1      0.0000
    35 OH       1.0299  -1.4258  -2.1046   O.3       1 1      0.0000
    36 OH1      0.3166  -1.3471  -2.7851   H         1 1      0.0000
    37 H22      0.1366  -0.0362  -0.8578   H         1 1      0.0000
    38 C16      2.3220   3.0554   2.0446   C.3       1 1      0.0000
    39 H16C     1.3054   3.3159   1.7576   H         1 1      0.0000
    40 H16A     2.4395   3.2670   3.1054   H         1 1      0.0000
    41 H16B     3.0051   3.6980   1.4931   H         1 1      0.0000
@<TRIPOS>BOND
     1     1     2   ar
     2     1     6   ar
     3     1    29    1
     4     2     3   ar
     5     2     7    1
     6     3     4   ar
     7     3    30    1
     8     4     5   ar
     9     4     8    1
    10     5     6   ar
    11     5     9    1
    12     6    10    1
    13     8    11    1
    14     8    12    1
    15     8    28    1
    16    11    13    1
    17    11    26    1
    18    11    27    1
    19    13    14    1
    20    14    15    1
    21    14    16    1
    22    14    31    1
    23    16    17    1
    24    16    20    2
    25    17    18    1
    26    17    19    1
    27    17    32    1
    28    20    21    1
    29    20    22    1
    30    22    23    1
    31    22    24    1
    32    22    25    1
    33    32    33    1
    34    32    34    1
    35    13    35    1
    36    35    36    1
    37    13    37    1
    38    32    38    1
    39    38    39    1
    40    38    40    1
    41    38    41    1
@<TRIPOS>SUBSTRUCTURE
     1 1           1 GROUP             0 ****  ****    0  
@<TRIPOS>MOLECULE
Molecule Name_00001_00116
    41    41     1     0     0
SMALL
NO_CHARGES
****
Generated from the CSD

@<TRIPOS>ATOM
     1 C5      -3.7036   1.7695   1.0522   C.ar      1 1      0.0000
     2 C4      -4.1710   1.1188  -0.0692   C.ar      1 1      0.0000
     3 C3      -3.4854   0.0277  -0.5766   C.ar      1 1      0.0000
     4 C8      -2.3250  -0.4271   0.0306   C.ar      1 1      0.0000
     5 C7      -1.8658   0.2379   1.1571   C.ar      1 1      0.0000
     6 C6      -2.5506   1.3291   1.6653   C.ar      1 1      0.0000
     7 H4      -5.0781   1.4621  -0.5556   H         1 1      0.0000
     8 C9      -1.5763  -1.6144  -0.5247   C.3       1 1      0.0000
     9 H7      -0.9587  -0.1008   1.6467   H         1 1      0.0000
    10 H6      -2.1786   1.8384   2.5482   H         1 1      0.0000
    11 C10     -0.5689  -1.2353  -1.6085   C.3       1 1      0.0000
    12 H9A     -1.0470  -2.1165   0.2946   H         1 1      0.0000
    13 C11      0.6392  -0.4480  -1.1274   C.3       1 1      0.0000
    14 C12      1.5792  -1.3057  -0.2874   C.3       1 1      0.0000
    15 H12A     1.9388  -2.1447  -0.8958   H         1 1      0.0000
    16 C13      2.7573  -0.5401   0.2336   C.2       1 1      0.0000
    17 C14      2.5234   0.3896   1.3863   C.3       1 1      0.0000
    18 H14B     3.4407   0.4456   1.9852   H         1 1      0.0000
    19 H14A     1.7341  -0.0215   2.0274   H         1 1      0.0000
    20 N        3.9534  -0.6988  -0.2971   N.pl3     1 1      0.0000
    21 HN       4.0399  -1.4179  -1.0152   H         1 1      0.0000
    22 C        5.1864  -0.0524   0.1282   C.3       1 1      0.0000
    23 H1A      6.0537  -0.5899  -0.2495   H         1 1      0.0000
    24 H1C      5.2334   0.9694  -0.2424   H         1 1      0.0000
    25 H1B      5.2526  -0.0221   1.2136   H         1 1      0.0000
    26 H10A    -0.2129  -2.1564  -2.0862   H         1 1      0.0000
    27 H10B    -1.0878  -0.6412  -2.3708   H         1 1      0.0000
    28 H9B     -2.2982  -2.3272  -0.9420   H         1 1      0.0000
    29 H5      -4.2406   2.6242   1.4501   H         1 1      0.0000
    30 H3      -3.8612  -0.4775  -1.4602   H         1 1      0.0000
    31 H12B     1.0214  -1.7230   0.5601   H         1 1      0.0000
    32 C15      2.1322   1.7926   0.9604   C.3       1 1      0.0000
    33 H15A     1.2062   1.7457   0.3742   H         1 1      0.0000
    34 H15C     2.9169   2.2043   0.3137   H         1 1      0.0000
    35 OH       1.3507   0.0526  -2.2627   O.3       1 1      0.0000
    36 OH1      0.7530   0.6294  -2.7993   H         1 1      0.0000
    37 H22      0.2925   0.4014  -0.5187   H         1 1      0.0000
    38 C16      1.9261   2.7156   2.1391   C.3       1 1      0.0000
    39 H16C     2.8372   2.7987   2.7279   H         1 1      0.0000
    40 H16A     1.6469   3.7124   1.8042   H         1 1      0.0000
    41 H16B     1.1363   2.3424   2.7877   H         1 1      0.0000
@<TRIPOS>BOND
     1     1     2   ar
     2     1     6   ar
     3     1    29    1
     4     2     3   ar
     5     2     7    1
     6     3     4   ar
     7     3    30    1
     8     4     5   ar
     9     4     8    1
    10     5     6   ar
    11     5     9    1
    12     6    10    1
    13     8    11    1
    14     8    12    1
    15     8    28    1
    16    11    13    1
    17    11    26    1
    18    11    27    1
    19    13    14    1
    20    14    15    1
    21    14    16    1
    22    14    31    1
    23    16    17    1
    24    16    20    2
    25    17    18    1
    26    17    19    1
    27    17    32    1
    28    20    21    1
    29    20    22    1
    30    22    23    1
    31    22    24    1
    32    22    25    1
    33    32    33    1
    34    32    34    1
    35    13    35    1
    36    35    36    1
    37    13    37    1
    38    32    38    1
    39    38    39    1
    40    38    40    1
    41    38    41    1
@<TRIPOS>SUBSTRUCTURE
     1 1           1 GROUP             0 ****  ****    0  
@<TRIPOS>MOLECULE
Molecule Name_00001_00117
    41    41     1     0     0
SMALL
NO_CHARGES
****
Generated from the CSD

@<TRIPOS>ATOM
     1 C5      -4.2476  -1.5168   0.0651   C.ar      1 1      0.0000
     2 C4      -4.5985  -0.2952   0.5979   C.ar      1 1      0.0000
     3 C3      -3.7648   0.7990   0.4375   C.ar      1 1      0.0000
     4 C8      -2.5707   0.6861  -0.2578   C.ar      1 1      0.0000
     5 C7      -2.2299  -0.5490  -0.7873   C.ar      1 1      0.0000
     6 C6      -3.0629  -1.6438  -0.6275   C.ar      1 1      0.0000
     7 H4      -5.5301  -0.1904   1.1443   H         1 1      0.0000
     8 C9      -1.6607   1.8783  -0.4296   C.3       1 1      0.0000
     9 H7      -1.2990  -0.6593  -1.3337   H         1 1      0.0000
    10 H6      -2.7822  -2.6036  -1.0484   H         1 1      0.0000
    11 C10     -0.6843   2.0601   0.7308   C.3       1 1      0.0000
    12 H9A     -1.0915   1.7604  -1.3599   H         1 1      0.0000
    13 C11      0.3992   0.9996   0.8420   C.3       1 1      0.0000
    14 C12      1.4211   1.1105  -0.2840   C.3       1 1      0.0000
    15 H12A     1.9741   2.0516  -0.1748   H         1 1      0.0000
    16 C13      2.3946  -0.0286  -0.3016   C.2       1 1      0.0000
    17 C14      3.4969  -0.0124   0.7144   C.3       1 1      0.0000
    18 H14B     3.8414  -1.0412   0.8766   H         1 1      0.0000
    19 H14A     3.1032   0.3591   1.6684   H         1 1      0.0000
    20 N        2.2670  -1.0118  -1.1702   N.pl3     1 1      0.0000
    21 HN       1.4375  -0.9894  -1.7631   H         1 1      0.0000
    22 C        3.1118  -2.1925  -1.2778   C.3       1 1      0.0000
    23 H1A      2.6037  -2.9813  -1.8285   H         1 1      0.0000
    24 H1C      4.0375  -1.9577  -1.7990   H         1 1      0.0000
    25 H1B      3.3664  -2.5768  -0.2924   H         1 1      0.0000
    26 H10A    -0.2001   3.0387   0.6243   H         1 1      0.0000
    27 H10B    -1.2567   2.0694   1.6666   H         1 1      0.0000
    28 H9B     -2.2735   2.7831  -0.5256   H         1 1      0.0000
    29 H5      -4.9006  -2.3742   0.1904   H         1 1      0.0000
    30 H3      -4.0497   1.7563   0.8613   H         1 1      0.0000
    31 H12B     0.8927   1.1436  -1.2448   H         1 1      0.0000
    32 C15      4.6831   0.8406   0.3046   C.3       1 1      0.0000
    33 H15A     4.3452   1.8709   0.1388   H         1 1      0.0000
    34 H15C     5.0865   0.4643  -0.6436   H         1 1      0.0000
    35 OH       1.0678   1.1473   2.0978   O.3       1 1      0.0000
    36 OH1      0.4138   1.0525   2.8335   H         1 1      0.0000
    37 H22     -0.0699   0.0044   0.8007   H         1 1      0.0000
    38 C16      5.7793   0.8401   1.3449   C.3       1 1      0.0000
    39 H16C     6.1498  -0.1688   1.5143   H         1 1      0.0000
    40 H16A     6.6151   1.4587   1.0247   H         1 1      0.0000
    41 H16B     5.4124   1.2300   2.2920   H         1 1      0.0000
@<TRIPOS>BOND
     1     1     2   ar
     2     1     6   ar
     3     1    29    1
     4     2     3   ar
     5     2     7    1
     6     3     4   ar
     7     3    30    1
     8     4     5   ar
     9     4     8    1
    10     5     6   ar
    11     5     9    1
    12     6    10    1
    13     8    11    1
    14     8    12    1
    15     8    28    1
    16    11    13    1
    17    11    26    1
    18    11    27    1
    19    13    14    1
    20    14    15    1
    21    14    16    1
    22    14    31    1
    23    16    17    1
    24    16    20    2
    25    17    18    1
    26    17    19    1
    27    17    32    1
    28    20    21    1
    29    20    22    1
    30    22    23    1
    31    22    24    1
    32    22    25    1
    33    32    33    1
    34    32    34    1
    35    13    35    1
    36    35    36    1
    37    13    37    1
    38    32    38    1
    39    38    39    1
    40    38    40    1
    41    38    41    1
@<TRIPOS>SUBSTRUCTURE
     1 1           1 GROUP             0 ****  ****    0  
@<TRIPOS>MOLECULE
Molecule Name_00001_00118
    41    41     1     0     0
SMALL
NO_CHARGES
****
Generated from the CSD

@<TRIPOS>ATOM
     1 C5      -4.7333  -1.2240   0.3496   C.ar      1 1      0.0000
     2 C4      -3.7858  -1.2425   1.3502   C.ar      1 1      0.0000
     3 C3      -2.6898  -0.3984   1.2860   C.ar      1 1      0.0000
     4 C8      -2.5275   0.4751   0.2217   C.ar      1 1      0.0000
     5 C7      -3.4877   0.4821  -0.7783   C.ar      1 1      0.0000
     6 C6      -4.5841  -0.3616  -0.7150   C.ar      1 1      0.0000
     7 H4      -3.8988  -1.9200   2.1902   H         1 1      0.0000
     8 C9      -1.3309   1.3927   0.1504   C.3       1 1      0.0000
     9 H7      -3.3789   1.1570  -1.6209   H         1 1      0.0000
    10 H6      -5.3273  -0.3436  -1.5053   H         1 1      0.0000
    11 C10     -0.1171   0.7456  -0.5136   C.3       1 1      0.0000
    12 H9A     -1.6065   2.2941  -0.4108   H         1 1      0.0000
    13 C11      1.1179   1.6267  -0.6119   C.3       1 1      0.0000
    14 C12      2.2802   0.9037  -1.2836   C.3       1 1      0.0000
    15 H12A     3.0755   1.6276  -1.5000   H         1 1      0.0000
    16 C13      2.8421  -0.2024  -0.4432   C.2       1 1      0.0000
    17 C14      4.1061   0.0771   0.3132   C.3       1 1      0.0000
    18 H14B     4.7733   0.6712  -0.3234   H         1 1      0.0000
    19 H14A     4.6135  -0.8706   0.5310   H         1 1      0.0000
    20 N        2.2307  -1.3675  -0.3646   N.pl3     1 1      0.0000
    21 HN       1.3299  -1.4405  -0.8374   H         1 1      0.0000
    22 C        2.6401  -2.5124   0.4356   C.3       1 1      0.0000
    23 H1A      1.7722  -3.0505   0.8111   H         1 1      0.0000
    24 H1C      3.2366  -3.2030  -0.1567   H         1 1      0.0000
    25 H1B      3.2369  -2.1949   1.2880   H         1 1      0.0000
    26 H10A     0.1463  -0.1561   0.0529   H         1 1      0.0000
    27 H10B    -0.4014   0.4343  -1.5263   H         1 1      0.0000
    28 H9B     -1.0588   1.7026   1.1669   H         1 1      0.0000
    29 H5      -5.5923  -1.8849   0.3997   H         1 1      0.0000
    30 H3      -1.9490  -0.4209   2.0784   H         1 1      0.0000
    31 H12B     1.9384   0.4877  -2.2394   H         1 1      0.0000
    32 C15      3.8785   0.8251   1.6137   C.3       1 1      0.0000
    33 H15A     3.2100   0.2372   2.2547   H         1 1      0.0000
    34 H15C     3.3813   1.7789   1.3980   H         1 1      0.0000
    35 OH       0.7952   2.7977  -1.3671   O.3       1 1      0.0000
    36 OH1      0.0699   3.2940  -0.9136   H         1 1      0.0000
    37 H22      1.4236   1.9273   0.4022   H         1 1      0.0000
    38 C16      5.1669   1.0942   2.3562   C.3       1 1      0.0000
    39 H16C     5.8422   1.6956   1.7513   H         1 1      0.0000
    40 H16A     4.9733   1.6305   3.2828   H         1 1      0.0000
    41 H16B     5.6716   0.1625   2.6030   H         1 1      0.0000
@<TRIPOS>BOND
     1     1     2   ar
     2     1     6   ar
     3     1    29    1
     4     2     3   ar
     5     2     7    1
     6     3     4   ar
     7     3    30    1
     8     4     5   ar
     9     4     8    1
    10     5     6   ar
    11     5     9    1
    12     6    10    1
    13     8    11    1
    14     8    12    1
    15     8    28    1
    16    11    13    1
    17    11    26    1
    18    11    27    1
    19    13    14    1
    20    14    15    1
    21    14    16    1
    22    14    31    1
    23    16    17    1
    24    16    20    2
    25    17    18    1
    26    17    19    1
    27    17    32    1
    28    20    21    1
    29    20    22    1
    30    22    23    1
    31    22    24    1
    32    22    25    1
    33    32    33    1
    34    32    34    1
    35    13    35    1
    36    35    36    1
    37    13    37    1
    38    32    38    1
    39    38    39    1
    40    38    40    1
    41    38    41    1
@<TRIPOS>SUBSTRUCTURE
     1 1           1 GROUP             0 ****  ****    0  
@<TRIPOS>MOLECULE
Molecule Name_00001_00119
    41    41     1     0     0
SMALL
NO_CHARGES
****
Generated from the CSD

@<TRIPOS>ATOM
     1 C5      -4.2840   1.5975  -0.6114   C.ar      1 1      0.0000
     2 C4      -3.4969   0.9470  -1.5370   C.ar      1 1      0.0000
     3 C3      -2.5187   0.0607  -1.1180   C.ar      1 1      0.0000
     4 C8      -2.3156  -0.1872   0.2308   C.ar      1 1      0.0000
     5 C7      -3.1138   0.4751   1.1508   C.ar      1 1      0.0000
     6 C6      -4.0922   1.3616   0.7328   C.ar      1 1      0.0000
     7 H4      -3.6439   1.1298  -2.5964   H         1 1      0.0000
     8 C9      -1.2471  -1.1509   0.6873   C.3       1 1      0.0000
     9 H7      -2.9702   0.2966   2.2113   H         1 1      0.0000
    10 H6      -4.7092   1.8716   1.4653   H         1 1      0.0000
    11 C10      0.1222  -0.4945   0.8526   C.3       1 1      0.0000
    12 H9A     -1.5501  -1.5907   1.6455   H         1 1      0.0000
    13 C11      1.2369  -1.4209   1.3112   C.3       1 1      0.0000
    14 C12      2.5540  -0.6760   1.4992   C.3       1 1      0.0000
    15 H12A     3.2752  -1.3414   1.9896   H         1 1      0.0000
    16 C13      3.1380  -0.1902   0.2075   C.2       1 1      0.0000
    17 C14      3.2146   1.2923  -0.0029   C.3       1 1      0.0000
    18 H14B     4.0125   1.5047  -0.7251   H         1 1      0.0000
    19 H14A     3.4861   1.7776   0.9425   H         1 1      0.0000
    20 N        3.5812  -1.0421  -0.6954   N.pl3     1 1      0.0000
    21 HN       3.5750  -2.0273  -0.4320   H         1 1      0.0000
    22 C        4.2018  -0.7136  -1.9705   C.3       1 1      0.0000
    23 H1A      4.5834  -1.6095  -2.4558   H         1 1      0.0000
    24 H1C      3.4828  -0.2459  -2.6399   H         1 1      0.0000
    25 H1B      5.0318  -0.0243  -1.8304   H         1 1      0.0000
    26 H10A     0.4126  -0.0548  -0.1096   H         1 1      0.0000
    27 H10B     0.0294   0.3215   1.5798   H         1 1      0.0000
    28 H9B     -1.1666  -1.9654  -0.0432   H         1 1      0.0000
    29 H5      -5.0506   2.2918  -0.9393   H         1 1      0.0000
    30 H3      -1.9038  -0.4460  -1.8545   H         1 1      0.0000
    31 H12B     2.3881   0.1826   2.1615   H         1 1      0.0000
    32 C15      1.9201   1.8971  -0.5139   C.3       1 1      0.0000
    33 H15A     1.1268   1.7256   0.2241   H         1 1      0.0000
    34 H15C     1.6282   1.3909  -1.4423   H         1 1      0.0000
    35 OH       0.8593  -2.0251   2.5514   O.3       1 1      0.0000
    36 OH1      0.0631  -2.5950   2.4123   H         1 1      0.0000
    37 H22      1.3785  -2.2100   0.5565   H         1 1      0.0000
    38 C16      2.0414   3.3807  -0.7750   C.3       1 1      0.0000
    39 H16C     2.8079   3.5795  -1.5212   H         1 1      0.0000
    40 H16A     1.1001   3.7864  -1.1396   H         1 1      0.0000
    41 H16B     2.3093   3.9119   0.1359   H         1 1      0.0000
@<TRIPOS>BOND
     1     1     2   ar
     2     1     6   ar
     3     1    29    1
     4     2     3   ar
     5     2     7    1
     6     3     4   ar
     7     3    30    1
     8     4     5   ar
     9     4     8    1
    10     5     6   ar
    11     5     9    1
    12     6    10    1
    13     8    11    1
    14     8    12    1
    15     8    28    1
    16    11    13    1
    17    11    26    1
    18    11    27    1
    19    13    14    1
    20    14    15    1
    21    14    16    1
    22    14    31    1
    23    16    17    1
    24    16    20    2
    25    17    18    1
    26    17    19    1
    27    17    32    1
    28    20    21    1
    29    20    22    1
    30    22    23    1
    31    22    24    1
    32    22    25    1
    33    32    33    1
    34    32    34    1
    35    13    35    1
    36    35    36    1
    37    13    37    1
    38    32    38    1
    39    38    39    1
    40    38    40    1
    41    38    41    1
@<TRIPOS>SUBSTRUCTURE
     1 1           1 GROUP             0 ****  ****    0  
@<TRIPOS>MOLECULE
Molecule Name_00001_00120
    41    41     1     0     0
SMALL
NO_CHARGES
****
Generated from the CSD

@<TRIPOS>ATOM
     1 C5      -5.5267   0.5887   0.3110   C.ar      1 1      0.0000
     2 C4      -4.5831   0.7597   1.3009   C.ar      1 1      0.0000
     3 C3      -3.2359   0.6301   1.0074   C.ar      1 1      0.0000
     4 C8      -2.8149   0.3288  -0.2787   C.ar      1 1      0.0000
     5 C7      -3.7751   0.1583  -1.2641   C.ar      1 1      0.0000
     6 C6      -5.1226   0.2877  -0.9717   C.ar      1 1      0.0000
     7 H4      -4.8965   0.9964   2.3123   H         1 1      0.0000
     8 C9      -1.3465   0.1844  -0.5974   C.3       1 1      0.0000
     9 H7      -3.4670  -0.0795  -2.2770   H         1 1      0.0000
    10 H6      -5.8618   0.1518  -1.7543   H         1 1      0.0000
    11 C10     -0.6483  -0.8727   0.2558   C.3       1 1      0.0000
    12 H9A     -1.2364  -0.0816  -1.6560   H         1 1      0.0000
    13 C11      0.8342  -1.0598  -0.0239   C.3       1 1      0.0000
    14 C12      1.6567   0.1352   0.4453   C.3       1 1      0.0000
    15 H12A     1.5980   0.2037   1.5386   H         1 1      0.0000
    16 C13      3.0962   0.0477   0.0382   C.2       1 1      0.0000
    17 C14      3.8243   1.3345  -0.2103   C.3       1 1      0.0000
    18 H14B     3.1508   2.0250  -0.7328   H         1 1      0.0000
    19 H14A     4.6796   1.1438  -0.8700   H         1 1      0.0000
    20 N        3.6950  -1.1209  -0.0769   N.pl3     1 1      0.0000
    21 HN       3.1520  -1.9387   0.1996   H         1 1      0.0000
    22 C        5.0888  -1.3533  -0.4266   C.3       1 1      0.0000
    23 H1A      5.4792  -2.2210   0.1011   H         1 1      0.0000
    24 H1C      5.1936  -1.5311  -1.4948   H         1 1      0.0000
    25 H1B      5.7017  -0.4934  -0.1650   H         1 1      0.0000
    26 H10A    -0.7686  -0.5990   1.3113   H         1 1      0.0000
    27 H10B    -1.1539  -1.8335   0.0988   H         1 1      0.0000
    28 H9B     -0.8519   1.1514  -0.4431   H         1 1      0.0000
    29 H5      -6.5823   0.6904   0.5405   H         1 1      0.0000
    30 H3      -2.5008   0.7661   1.7938   H         1 1      0.0000
    31 H12B     1.2232   1.0533   0.0298   H         1 1      0.0000
    32 C15      4.3196   2.0027   1.0589   C.3       1 1      0.0000
    33 H15A     4.9925   1.3165   1.5877   H         1 1      0.0000
    34 H15C     3.4648   2.2053   1.7160   H         1 1      0.0000
    35 OH       1.2902  -2.2361   0.6502   O.3       1 1      0.0000
    36 OH1      0.7765  -3.0191   0.3324   H         1 1      0.0000
    37 H22      0.9795  -1.1888  -1.1076   H         1 1      0.0000
    38 C16      5.0494   3.2965   0.7813   C.3       1 1      0.0000
    39 H16C     4.3978   4.0060   0.2756   H         1 1      0.0000
    40 H16A     5.3924   3.7523   1.7078   H         1 1      0.0000
    41 H16B     5.9167   3.1219   0.1481   H         1 1      0.0000
@<TRIPOS>BOND
     1     1     2   ar
     2     1     6   ar
     3     1    29    1
     4     2     3   ar
     5     2     7    1
     6     3     4   ar
     7     3    30    1
     8     4     5   ar
     9     4     8    1
    10     5     6   ar
    11     5     9    1
    12     6    10    1
    13     8    11    1
    14     8    12    1
    15     8    28    1
    16    11    13    1
    17    11    26    1
    18    11    27    1
    19    13    14    1
    20    14    15    1
    21    14    16    1
    22    14    31    1
    23    16    17    1
    24    16    20    2
    25    17    18    1
    26    17    19    1
    27    17    32    1
    28    20    21    1
    29    20    22    1
    30    22    23    1
    31    22    24    1
    32    22    25    1
    33    32    33    1
    34    32    34    1
    35    13    35    1
    36    35    36    1
    37    13    37    1
    38    32    38    1
    39    38    39    1
    40    38    40    1
    41    38    41    1
@<TRIPOS>SUBSTRUCTURE
     1 1           1 GROUP             0 ****  ****    0  
@<TRIPOS>MOLECULE
Molecule Name_00001_00121
    41    41     1     0     0
SMALL
NO_CHARGES
****
Generated from the CSD

@<TRIPOS>ATOM
     1 C5      -5.4668   0.5428   0.3104   C.ar      1 1      0.0000
     2 C4      -4.6184   0.1679   1.3298   C.ar      1 1      0.0000
     3 C3      -3.2496   0.1397   1.1206   C.ar      1 1      0.0000
     4 C8      -2.7118   0.4864  -0.1093   C.ar      1 1      0.0000
     5 C7      -3.5771   0.8603  -1.1259   C.ar      1 1      0.0000
     6 C6      -4.9460   0.8889  -0.9177   C.ar      1 1      0.0000
     7 H4      -5.0237  -0.1057   2.2983   H         1 1      0.0000
     8 C9      -1.2200   0.4523  -0.3378   C.3       1 1      0.0000
     9 H7      -3.1770   1.1339  -2.0966   H         1 1      0.0000
    10 H6      -5.6100   1.1843  -1.7234   H         1 1      0.0000
    11 C10     -0.6012  -0.9160  -0.0586   C.3       1 1      0.0000
    12 H9A     -1.0128   0.7321  -1.3781   H         1 1      0.0000
    13 C11      0.9010  -1.0069  -0.2731   C.3       1 1      0.0000
    14 C12      1.6747  -0.2298   0.7863   C.3       1 1      0.0000
    15 H12A     1.5158  -0.7011   1.7640   H         1 1      0.0000
    16 C13      3.1457  -0.1699   0.5065   C.2       1 1      0.0000
    17 C14      3.8912   1.0415   0.9802   C.3       1 1      0.0000
    18 H14B     4.9477   0.7762   1.1104   H         1 1      0.0000
    19 H14A     3.5028   1.3443   1.9602   H         1 1      0.0000
    20 N        3.7547  -1.1584  -0.1174   N.pl3     1 1      0.0000
    21 HN       3.1901  -1.9828  -0.3221   H         1 1      0.0000
    22 C        5.1751  -1.2509  -0.4220   C.3       1 1      0.0000
    23 H1A      5.4468  -2.2701  -0.6888   H         1 1      0.0000
    24 H1C      5.4333  -0.6021  -1.2564   H         1 1      0.0000
    25 H1B      5.7747  -0.9537   0.4357   H         1 1      0.0000
    26 H10A    -0.8185  -1.1872   0.9819   H         1 1      0.0000
    27 H10B    -1.0885  -1.6550  -0.7065   H         1 1      0.0000
    28 H9B     -0.7435   1.1985   0.3099   H         1 1      0.0000
    29 H5      -6.5391   0.5654   0.4740   H         1 1      0.0000
    30 H3      -2.5901  -0.1574   1.9293   H         1 1      0.0000
    31 H12B     1.2795   0.7921   0.8402   H         1 1      0.0000
    32 C15      3.7976   2.2188   0.0273   C.3       1 1      0.0000
    33 H15A     2.7431   2.4883  -0.1090   H         1 1      0.0000
    34 H15C     4.1962   1.9227  -0.9509   H         1 1      0.0000
    35 OH       1.2953  -2.3811  -0.2273   O.3       1 1      0.0000
    36 OH1      0.8144  -2.8863  -0.9283   H         1 1      0.0000
    37 H22      1.1455  -0.5968  -1.2652   H         1 1      0.0000
    38 C16      4.5568   3.4260   0.5274   C.3       1 1      0.0000
    39 H16C     5.6125   3.1936   0.6514   H         1 1      0.0000
    40 H16A     4.4720   4.2529  -0.1746   H         1 1      0.0000
    41 H16B     4.1673   3.7558   1.4883   H         1 1      0.0000
@<TRIPOS>BOND
     1     1     2   ar
     2     1     6   ar
     3     1    29    1
     4     2     3   ar
     5     2     7    1
     6     3     4   ar
     7     3    30    1
     8     4     5   ar
     9     4     8    1
    10     5     6   ar
    11     5     9    1
    12     6    10    1
    13     8    11    1
    14     8    12    1
    15     8    28    1
    16    11    13    1
    17    11    26    1
    18    11    27    1
    19    13    14    1
    20    14    15    1
    21    14    16    1
    22    14    31    1
    23    16    17    1
    24    16    20    2
    25    17    18    1
    26    17    19    1
    27    17    32    1
    28    20    21    1
    29    20    22    1
    30    22    23    1
    31    22    24    1
    32    22    25    1
    33    32    33    1
    34    32    34    1
    35    13    35    1
    36    35    36    1
    37    13    37    1
    38    32    38    1
    39    38    39    1
    40    38    40    1
    41    38    41    1
@<TRIPOS>SUBSTRUCTURE
     1 1           1 GROUP             0 ****  ****    0  
@<TRIPOS>MOLECULE
Molecule Name_00001_00122
    41    41     1     0     0
SMALL
NO_CHARGES
****
Generated from the CSD

@<TRIPOS>ATOM
     1 C5      -4.9097   0.9106  -0.1960   C.ar      1 1      0.0000
     2 C4      -4.1724   0.2622  -1.1632   C.ar      1 1      0.0000
     3 C3      -2.9994  -0.3906  -0.8226   C.ar      1 1      0.0000
     4 C8      -2.5492  -0.4041   0.4886   C.ar      1 1      0.0000
     5 C7      -3.3002   0.2533   1.4508   C.ar      1 1      0.0000
     6 C6      -4.4733   0.9063   1.1113   C.ar      1 1      0.0000
     7 H4      -4.5117   0.2631  -2.1938   H         1 1      0.0000
     8 C9      -1.2688  -1.1130   0.8588   C.3       1 1      0.0000
     9 H7      -2.9647   0.2561   2.4827   H         1 1      0.0000
    10 H6      -5.0502   1.4157   1.8761   H         1 1      0.0000
    11 C10     -0.0292  -0.2348   0.7003   C.3       1 1      0.0000
    12 H9A     -1.3368  -1.4497   1.9007   H         1 1      0.0000
    13 C11      0.3444   0.1114  -0.7320   C.3       1 1      0.0000
    14 C12      1.5954   0.9805  -0.7991   C.3       1 1      0.0000
    15 H12A     1.4422   1.8773  -0.1862   H         1 1      0.0000
    16 C13      2.8255   0.2687  -0.3239   C.2       1 1      0.0000
    17 C14      4.0573   1.0925  -0.0967   C.3       1 1      0.0000
    18 H14B     4.1340   1.8392  -0.8967   H         1 1      0.0000
    19 H14A     4.9410   0.4461  -0.1613   H         1 1      0.0000
    20 N        2.8094  -1.0302  -0.1001   N.pl3     1 1      0.0000
    21 HN       1.9067  -1.4958  -0.1920   H         1 1      0.0000
    22 C        3.9124  -1.8414   0.3943   C.3       1 1      0.0000
    23 H1A      3.5462  -2.6402   1.0358   H         1 1      0.0000
    24 H1C      4.4586  -2.2932  -0.4311   H         1 1      0.0000
    25 H1B      4.6093  -1.2365   0.9704   H         1 1      0.0000
    26 H10A    -0.1961   0.7002   1.2493   H         1 1      0.0000
    27 H10B     0.8211  -0.7491   1.1650   H         1 1      0.0000
    28 H9B     -1.1590  -2.0029   0.2269   H         1 1      0.0000
    29 H5      -5.8288   1.4219  -0.4624   H         1 1      0.0000
    30 H3      -2.4258  -0.8976  -1.5914   H         1 1      0.0000
    31 H12B     1.7493   1.3066  -1.8352   H         1 1      0.0000
    32 C15      4.0664   1.8082   1.2414   C.3       1 1      0.0000
    33 H15A     3.9879   1.0671   2.0464   H         1 1      0.0000
    34 H15C     3.1896   2.4645   1.3045   H         1 1      0.0000
    35 OH       0.5753  -1.0990  -1.4583   O.3       1 1      0.0000
    36 OH1     -0.2611  -1.6253  -1.4978   H         1 1      0.0000
    37 H22     -0.4922   0.6548  -1.1978   H         1 1      0.0000
    38 C16      5.3175   2.6309   1.4457   C.3       1 1      0.0000
    39 H16C     5.4102   3.3904   0.6722   H         1 1      0.0000
    40 H16A     5.2964   3.1315   2.4115   H         1 1      0.0000
    41 H16B     6.2036   2.0007   1.4099   H         1 1      0.0000
@<TRIPOS>BOND
     1     1     2   ar
     2     1     6   ar
     3     1    29    1
     4     2     3   ar
     5     2     7    1
     6     3     4   ar
     7     3    30    1
     8     4     5   ar
     9     4     8    1
    10     5     6   ar
    11     5     9    1
    12     6    10    1
    13     8    11    1
    14     8    12    1
    15     8    28    1
    16    11    13    1
    17    11    26    1
    18    11    27    1
    19    13    14    1
    20    14    15    1
    21    14    16    1
    22    14    31    1
    23    16    17    1
    24    16    20    2
    25    17    18    1
    26    17    19    1
    27    17    32    1
    28    20    21    1
    29    20    22    1
    30    22    23    1
    31    22    24    1
    32    22    25    1
    33    32    33    1
    34    32    34    1
    35    13    35    1
    36    35    36    1
    37    13    37    1
    38    32    38    1
    39    38    39    1
    40    38    40    1
    41    38    41    1
@<TRIPOS>SUBSTRUCTURE
     1 1           1 GROUP             0 ****  ****    0  
@<TRIPOS>MOLECULE
Molecule Name_00001_00123
    41    41     1     0     0
SMALL
NO_CHARGES
****
Generated from the CSD

@<TRIPOS>ATOM
     1 C5      -4.9979   0.9401  -0.1567   C.ar      1 1      0.0000
     2 C4      -4.1482   0.6590  -1.2047   C.ar      1 1      0.0000
     3 C3      -2.9943  -0.0753  -0.9870   C.ar      1 1      0.0000
     4 C8      -2.6758  -0.5384   0.2803   C.ar      1 1      0.0000
     5 C7      -3.5390  -0.2472   1.3254   C.ar      1 1      0.0000
     6 C6      -4.6931   0.4871   1.1087   C.ar      1 1      0.0000
     7 H4      -4.3837   1.0139  -2.2027   H         1 1      0.0000
     8 C9      -1.4164  -1.3361   0.5178   C.3       1 1      0.0000
     9 H7      -3.3076  -0.5989   2.3254   H         1 1      0.0000
    10 H6      -5.3588   0.7061   1.9370   H         1 1      0.0000
    11 C10     -0.1959  -0.4614   0.7978   C.3       1 1      0.0000
    12 H9A     -1.5763  -2.0088   1.3695   H         1 1      0.0000
    13 C11      0.3063   0.3526  -0.3838   C.3       1 1      0.0000
    14 C12      1.5294   1.1875  -0.0204   C.3       1 1      0.0000
    15 H12A     1.2876   1.8210   0.8419   H         1 1      0.0000
    16 C13      2.7285   0.3513   0.3090   C.2       1 1      0.0000
    17 C14      3.9048   1.0430   0.9301   C.3       1 1      0.0000
    18 H14B     4.4877   0.3063   1.4964   H         1 1      0.0000
    19 H14A     3.5460   1.7980   1.6403   H         1 1      0.0000
    20 N        2.7320  -0.9456   0.0739   N.pl3     1 1      0.0000
    21 HN       1.8582  -1.3483  -0.2644   H         1 1      0.0000
    22 C        3.8060  -1.8812   0.3742   C.3       1 1      0.0000
    23 H1A      3.4326  -2.9028   0.3961   H         1 1      0.0000
    24 H1C      4.5894  -1.8230  -0.3787   H         1 1      0.0000
    25 H1B      4.2505  -1.6618   1.3426   H         1 1      0.0000
    26 H10A    -0.4462   0.2300   1.6119   H         1 1      0.0000
    27 H10B     0.6203  -1.1069   1.1451   H         1 1      0.0000
    28 H9B     -1.2161  -1.9564  -0.3644   H         1 1      0.0000
    29 H5      -5.9020   1.5152  -0.3269   H         1 1      0.0000
    30 H3      -2.3315  -0.2908  -1.8185   H         1 1      0.0000
    31 H12B     1.7745   1.8479  -0.8613   H         1 1      0.0000
    32 C15      4.8157   1.7119  -0.0827   C.3       1 1      0.0000
    33 H15A     4.2383   2.4490  -0.6543   H         1 1      0.0000
    34 H15C     5.1855   0.9572  -0.7877   H         1 1      0.0000
    35 OH       0.6466  -0.5370  -1.4508   O.3       1 1      0.0000
    36 OH1     -0.1688  -0.9957  -1.7713   H         1 1      0.0000
    37 H22     -0.4971   1.0258  -0.7208   H         1 1      0.0000
    38 C16      5.9924   2.4012   0.5683   C.3       1 1      0.0000
    39 H16C     6.5968   1.6886   1.1257   H         1 1      0.0000
    40 H16A     6.6267   2.8710  -0.1805   H         1 1      0.0000
    41 H16B     5.6547   3.1718   1.2582   H         1 1      0.0000
@<TRIPOS>BOND
     1     1     2   ar
     2     1     6   ar
     3     1    29    1
     4     2     3   ar
     5     2     7    1
     6     3     4   ar
     7     3    30    1
     8     4     5   ar
     9     4     8    1
    10     5     6   ar
    11     5     9    1
    12     6    10    1
    13     8    11    1
    14     8    12    1
    15     8    28    1
    16    11    13    1
    17    11    26    1
    18    11    27    1
    19    13    14    1
    20    14    15    1
    21    14    16    1
    22    14    31    1
    23    16    17    1
    24    16    20    2
    25    17    18    1
    26    17    19    1
    27    17    32    1
    28    20    21    1
    29    20    22    1
    30    22    23    1
    31    22    24    1
    32    22    25    1
    33    32    33    1
    34    32    34    1
    35    13    35    1
    36    35    36    1
    37    13    37    1
    38    32    38    1
    39    38    39    1
    40    38    40    1
    41    38    41    1
@<TRIPOS>SUBSTRUCTURE
     1 1           1 GROUP             0 ****  ****    0  
@<TRIPOS>MOLECULE
Molecule Name_00001_00124
    41    41     1     0     0
SMALL
NO_CHARGES
****
Generated from the CSD

@<TRIPOS>ATOM
     1 C5      -4.6648   0.9913  -0.5087   C.ar      1 1      0.0000
     2 C4      -3.6599   1.8170  -0.0528   C.ar      1 1      0.0000
     3 C3      -2.3646   1.3398   0.0592   C.ar      1 1      0.0000
     4 C8      -2.0574   0.0320  -0.2837   C.ar      1 1      0.0000
     5 C7      -3.0784  -0.7876  -0.7396   C.ar      1 1      0.0000
     6 C6      -4.3740  -0.3114  -0.8520   C.ar      1 1      0.0000
     7 H4      -3.8841   2.8432   0.2190   H         1 1      0.0000
     8 C9      -0.6461  -0.4887  -0.1584   C.3       1 1      0.0000
     9 H7      -2.8597  -1.8149  -1.0118   H         1 1      0.0000
    10 H6      -5.1619  -0.9653  -1.2111   H         1 1      0.0000
    11 C10     -0.3301  -1.0378   1.2314   C.3       1 1      0.0000
    12 H9A     -0.4926  -1.2830  -0.8993   H         1 1      0.0000
    13 C11      1.0601  -1.6301   1.3967   C.3       1 1      0.0000
    14 C12      2.1344  -0.5500   1.4606   C.3       1 1      0.0000
    15 H12A     3.0722  -0.9975   1.8125   H         1 1      0.0000
    16 C13      2.3752   0.1112   0.1376   C.2       1 1      0.0000
    17 C14      2.7403   1.5653   0.1471   C.3       1 1      0.0000
    18 H14B     2.1381   2.0745   0.9097   H         1 1      0.0000
    19 H14A     2.4871   2.0075  -0.8242   H         1 1      0.0000
    20 N        2.2845  -0.5732  -0.9852   N.pl3     1 1      0.0000
    21 HN       2.1223  -1.5760  -0.8941   H         1 1      0.0000
    22 C        2.5256  -0.0729  -2.3308   C.3       1 1      0.0000
    23 H1A      2.9737  -0.8437  -2.9543   H         1 1      0.0000
    24 H1C      1.5945   0.2416  -2.7975   H         1 1      0.0000
    25 H1B      3.1994   0.7810  -2.3108   H         1 1      0.0000
    26 H10A    -0.4478  -0.2249   1.9586   H         1 1      0.0000
    27 H10B    -1.0675  -1.8132   1.4731   H         1 1      0.0000
    28 H9B      0.0548   0.3230  -0.3894   H         1 1      0.0000
    29 H5      -5.6796   1.3649  -0.5968   H         1 1      0.0000
    30 H3      -1.5806   1.9975   0.4197   H         1 1      0.0000
    31 H12B     1.8334   0.2114   2.1908   H         1 1      0.0000
    32 C15      4.2085   1.8172   0.4362   C.3       1 1      0.0000
    33 H15A     4.8169   1.3089  -0.3220   H         1 1      0.0000
    34 H15C     4.4622   1.3862   1.4126   H         1 1      0.0000
    35 OH       1.0977  -2.4001   2.6015   O.3       1 1      0.0000
    36 OH1      0.4189  -3.1178   2.5562   H         1 1      0.0000
    37 H22      1.2703  -2.2914   0.5419   H         1 1      0.0000
    38 C16      4.5502   3.2893   0.4402   C.3       1 1      0.0000
    39 H16C     3.9761   3.8164   1.1993   H         1 1      0.0000
    40 H16A     5.6073   3.4393   0.6496   H         1 1      0.0000
    41 H16B     4.3288   3.7392  -0.5254   H         1 1      0.0000
@<TRIPOS>BOND
     1     1     2   ar
     2     1     6   ar
     3     1    29    1
     4     2     3   ar
     5     2     7    1
     6     3     4   ar
     7     3    30    1
     8     4     5   ar
     9     4     8    1
    10     5     6   ar
    11     5     9    1
    12     6    10    1
    13     8    11    1
    14     8    12    1
    15     8    28    1
    16    11    13    1
    17    11    26    1
    18    11    27    1
    19    13    14    1
    20    14    15    1
    21    14    16    1
    22    14    31    1
    23    16    17    1
    24    16    20    2
    25    17    18    1
    26    17    19    1
    27    17    32    1
    28    20    21    1
    29    20    22    1
    30    22    23    1
    31    22    24    1
    32    22    25    1
    33    32    33    1
    34    32    34    1
    35    13    35    1
    36    35    36    1
    37    13    37    1
    38    32    38    1
    39    38    39    1
    40    38    40    1
    41    38    41    1
@<TRIPOS>SUBSTRUCTURE
     1 1           1 GROUP             0 ****  ****    0  
@<TRIPOS>MOLECULE
Molecule Name_00001_00125
    41    41     1     0     0
SMALL
NO_CHARGES
****
Generated from the CSD

@<TRIPOS>ATOM
     1 C5      -4.3027   1.2879  -0.2433   C.ar      1 1      0.0000
     2 C4      -3.2300   1.9788   0.2777   C.ar      1 1      0.0000
     3 C3      -1.9703   1.4034   0.2870   C.ar      1 1      0.0000
     4 C8      -1.7669   0.1311  -0.2248   C.ar      1 1      0.0000
     5 C7      -2.8552  -0.5527  -0.7445   C.ar      1 1      0.0000
     6 C6      -4.1153   0.0218  -0.7543   C.ar      1 1      0.0000
     7 H4      -3.3727   2.9757   0.6815   H         1 1      0.0000
     8 C9      -0.3942  -0.4970  -0.2115   C.3       1 1      0.0000
     9 H7      -2.7180  -1.5503  -1.1486   H         1 1      0.0000
    10 H6      -4.9568  -0.5261  -1.1652   H         1 1      0.0000
    11 C10     -0.0853  -1.2367   1.0887   C.3       1 1      0.0000
    12 H9A     -0.3166  -1.2007  -1.0495   H         1 1      0.0000
    13 C11      1.2621  -1.9392   1.1336   C.3       1 1      0.0000
    14 C12      2.4129  -0.9522   1.2949   C.3       1 1      0.0000
    15 H12A     3.3240  -1.5037   1.5576   H         1 1      0.0000
    16 C13      2.6688  -0.1482   0.0565   C.2       1 1      0.0000
    17 C14      3.1382   1.2646   0.2335   C.3       1 1      0.0000
    18 H14B     3.6834   1.5701  -0.6681   H         1 1      0.0000
    19 H14A     3.8396   1.3093   1.0756   H         1 1      0.0000
    20 N        2.5016  -0.6783  -1.1387   N.pl3     1 1      0.0000
    21 HN       2.2696  -1.6711  -1.1669   H         1 1      0.0000
    22 C        2.7457  -0.0308  -2.4194   C.3       1 1      0.0000
    23 H1A      2.8597  -0.7699  -3.2096   H         1 1      0.0000
    24 H1C      1.9178   0.6234  -2.6843   H         1 1      0.0000
    25 H1B      3.6526   0.5690  -2.3828   H         1 1      0.0000
    26 H10A    -0.1263  -0.5154   1.9142   H         1 1      0.0000
    27 H10B    -0.8708  -1.9838   1.2570   H         1 1      0.0000
    28 H9B      0.3577   0.2872  -0.3633   H         1 1      0.0000
    29 H5      -5.2897   1.7385  -0.2510   H         1 1      0.0000
    30 H3      -1.1323   1.9552   0.6999   H         1 1      0.0000
    31 H12B     2.1855  -0.2696   2.1231   H         1 1      0.0000
    32 C15      2.0099   2.2494   0.4785   C.3       1 1      0.0000
    33 H15A     1.4588   1.9486   1.3781   H         1 1      0.0000
    34 H15C     1.3125   2.2155  -0.3677   H         1 1      0.0000
    35 OH       1.2730  -2.8552   2.2321   O.3       1 1      0.0000
    36 OH1      0.5431  -3.5132   2.1209   H         1 1      0.0000
    37 H22      1.4031  -2.5009   0.1972   H         1 1      0.0000
    38 C16      2.5090   3.6650   0.6534   C.3       1 1      0.0000
    39 H16C     3.0421   3.9985  -0.2345   H         1 1      0.0000
    40 H16A     1.6798   4.3476   0.8274   H         1 1      0.0000
    41 H16B     3.1874   3.7327   1.5014   H         1 1      0.0000
@<TRIPOS>BOND
     1     1     2   ar
     2     1     6   ar
     3     1    29    1
     4     2     3   ar
     5     2     7    1
     6     3     4   ar
     7     3    30    1
     8     4     5   ar
     9     4     8    1
    10     5     6   ar
    11     5     9    1
    12     6    10    1
    13     8    11    1
    14     8    12    1
    15     8    28    1
    16    11    13    1
    17    11    26    1
    18    11    27    1
    19    13    14    1
    20    14    15    1
    21    14    16    1
    22    14    31    1
    23    16    17    1
    24    16    20    2
    25    17    18    1
    26    17    19    1
    27    17    32    1
    28    20    21    1
    29    20    22    1
    30    22    23    1
    31    22    24    1
    32    22    25    1
    33    32    33    1
    34    32    34    1
    35    13    35    1
    36    35    36    1
    37    13    37    1
    38    32    38    1
    39    38    39    1
    40    38    40    1
    41    38    41    1
@<TRIPOS>SUBSTRUCTURE
     1 1           1 GROUP             0 ****  ****    0  
@<TRIPOS>MOLECULE
Molecule Name_00001_00126
    41    41     1     0     0
SMALL
NO_CHARGES
****
Generated from the CSD

@<TRIPOS>ATOM
     1 C5      -4.5456  -1.2173   0.4375   C.ar      1 1      0.0000
     2 C4      -4.6047  -0.0005   1.0819   C.ar      1 1      0.0000
     3 C3      -3.5209   0.8608   1.0427   C.ar      1 1      0.0000
     4 C8      -2.3652   0.5172   0.3584   C.ar      1 1      0.0000
     5 C7      -2.3193  -0.7104  -0.2843   C.ar      1 1      0.0000
     6 C6      -3.4025  -1.5724  -0.2456   C.ar      1 1      0.0000
     7 H4      -5.5024   0.2832   1.6213   H         1 1      0.0000
     8 C9      -1.1829   1.4549   0.3185   C.3       1 1      0.0000
     9 H7      -1.4236  -0.9994  -0.8242   H         1 1      0.0000
    10 H6      -3.3511  -2.5294  -0.7542   H         1 1      0.0000
    11 C10     -0.0055   0.9026  -0.4827   C.3       1 1      0.0000
    12 H9A     -1.4992   2.4081  -0.1229   H         1 1      0.0000
    13 C11      1.2138   1.8076  -0.5556   C.3       1 1      0.0000
    14 C12      2.3458   1.1730  -1.3560   C.3       1 1      0.0000
    15 H12A     3.1484   1.9092  -1.4875   H         1 1      0.0000
    16 C13      2.9086  -0.0509  -0.6996   C.2       1 1      0.0000
    17 C14      3.7895   0.1490   0.4971   C.3       1 1      0.0000
    18 H14B     4.3319   1.0954   0.3809   H         1 1      0.0000
    19 H14A     4.5332  -0.6562   0.5365   H         1 1      0.0000
    20 N        2.6195  -1.2538  -1.1541   N.pl3     1 1      0.0000
    21 HN       1.9406  -1.3014  -1.9138   H         1 1      0.0000
    22 C        3.0628  -2.5238  -0.5975   C.3       1 1      0.0000
    23 H1A      2.2918  -3.2834  -0.7081   H         1 1      0.0000
    24 H1C      3.9592  -2.8747  -1.1044   H         1 1      0.0000
    25 H1B      3.2902  -2.4234   0.4616   H         1 1      0.0000
    26 H10A     0.2989  -0.0517  -0.0354   H         1 1      0.0000
    27 H10B    -0.3474   0.6998  -1.5051   H         1 1      0.0000
    28 H9B     -0.8530   1.6558   1.3453   H         1 1      0.0000
    29 H5      -5.3946  -1.8923   0.4678   H         1 1      0.0000
    30 H3      -3.5771   1.8162   1.5537   H         1 1      0.0000
    31 H12B     1.9729   0.9044  -2.3521   H         1 1      0.0000
    32 C15      3.0274   0.1812   1.8090   C.3       1 1      0.0000
    33 H15A     2.4617  -0.7521   1.9194   H         1 1      0.0000
    34 H15C     2.3070   1.0082   1.7864   H         1 1      0.0000
    35 OH       0.8401   3.0433  -1.1714   O.3       1 1      0.0000
    36 OH1      0.1254   3.4740  -0.6407   H         1 1      0.0000
    37 H22      1.5700   2.0097   0.4664   H         1 1      0.0000
    38 C16      3.9404   0.3511   3.0011   C.3       1 1      0.0000
    39 H16C     4.4996   1.2817   2.9291   H         1 1      0.0000
    40 H16A     3.3677   0.3706   3.9259   H         1 1      0.0000
    41 H16B     4.6531  -0.4688   3.0610   H         1 1      0.0000
@<TRIPOS>BOND
     1     1     2   ar
     2     1     6   ar
     3     1    29    1
     4     2     3   ar
     5     2     7    1
     6     3     4   ar
     7     3    30    1
     8     4     5   ar
     9     4     8    1
    10     5     6   ar
    11     5     9    1
    12     6    10    1
    13     8    11    1
    14     8    12    1
    15     8    28    1
    16    11    13    1
    17    11    26    1
    18    11    27    1
    19    13    14    1
    20    14    15    1
    21    14    16    1
    22    14    31    1
    23    16    17    1
    24    16    20    2
    25    17    18    1
    26    17    19    1
    27    17    32    1
    28    20    21    1
    29    20    22    1
    30    22    23    1
    31    22    24    1
    32    22    25    1
    33    32    33    1
    34    32    34    1
    35    13    35    1
    36    35    36    1
    37    13    37    1
    38    32    38    1
    39    38    39    1
    40    38    40    1
    41    38    41    1
@<TRIPOS>SUBSTRUCTURE
     1 1           1 GROUP             0 ****  ****    0  
@<TRIPOS>MOLECULE
Molecule Name_00001_00127
    41    41     1     0     0
SMALL
NO_CHARGES
****
Generated from the CSD

@<TRIPOS>ATOM
     1 C5      -4.8532  -1.2549  -0.1903   C.ar      1 1      0.0000
     2 C4      -4.9558  -0.2824   0.7809   C.ar      1 1      0.0000
     3 C3      -3.8697   0.5254   1.0739   C.ar      1 1      0.0000
     4 C8      -2.6681   0.3720   0.3995   C.ar      1 1      0.0000
     5 C7      -2.5789  -0.6110  -0.5741   C.ar      1 1      0.0000
     6 C6      -3.6644  -1.4193  -0.8678   C.ar      1 1      0.0000
     7 H4      -5.8896  -0.1495   1.3172   H         1 1      0.0000
     8 C9      -1.4835   1.2506   0.7214   C.3       1 1      0.0000
     9 H7      -1.6471  -0.7487  -1.1126   H         1 1      0.0000
    10 H6      -3.5787  -2.1837  -1.6330   H         1 1      0.0000
    11 C10     -0.2525   0.9319  -0.1248   C.3       1 1      0.0000
    12 H9A     -1.7643   2.2990   0.5624   H         1 1      0.0000
    13 C11      0.9714   1.7881   0.1584   C.3       1 1      0.0000
    14 C12      2.1570   1.3917  -0.7145   C.3       1 1      0.0000
    15 H12A     2.9448   2.1484  -0.6143   H         1 1      0.0000
    16 C13      2.7205   0.0499  -0.3574   C.2       1 1      0.0000
    17 C14      3.4902  -0.0582   0.9246   C.3       1 1      0.0000
    18 H14B     3.4577  -1.0996   1.2681   H         1 1      0.0000
    19 H14A     3.0043   0.5583   1.6907   H         1 1      0.0000
    20 N        2.5258  -0.9935  -1.1389   N.pl3     1 1      0.0000
    21 HN       1.9143  -0.8512  -1.9427   H         1 1      0.0000
    22 C        2.9807  -2.3556  -0.9008   C.3       1 1      0.0000
    23 H1A      2.4416  -3.0582  -1.5328   H         1 1      0.0000
    24 H1C      4.0426  -2.4507  -1.1177   H         1 1      0.0000
    25 H1B      2.8203  -2.6410   0.1367   H         1 1      0.0000
    26 H10A     0.0160  -0.1191   0.0386   H         1 1      0.0000
    27 H10B    -0.5195   1.0492  -1.1823   H         1 1      0.0000
    28 H9B     -1.2287   1.1304   1.7816   H         1 1      0.0000
    29 H5      -5.7040  -1.8878  -0.4203   H         1 1      0.0000
    30 H3      -3.9604   1.2877   1.8406   H         1 1      0.0000
    31 H12B     1.8394   1.3777  -1.7645   H         1 1      0.0000
    32 C15      4.9409   0.3679   0.7955   C.3       1 1      0.0000
    33 H15A     4.9809   1.4084   0.4503   H         1 1      0.0000
    34 H15C     5.4329  -0.2548   0.0382   H         1 1      0.0000
    35 OH       0.6469   3.1594  -0.0868   O.3       1 1      0.0000
    36 OH1     -0.1040   3.4307   0.4969   H         1 1      0.0000
    37 H22      1.2527   1.6700   1.2163   H         1 1      0.0000
    38 C16      5.6940   0.2496   2.1004   C.3       1 1      0.0000
    39 H16C     5.6896  -0.7784   2.4564   H         1 1      0.0000
    40 H16A     6.7292   0.5614   1.9778   H         1 1      0.0000
    41 H16B     5.2399   0.8754   2.8659   H         1 1      0.0000
@<TRIPOS>BOND
     1     1     2   ar
     2     1     6   ar
     3     1    29    1
     4     2     3   ar
     5     2     7    1
     6     3     4   ar
     7     3    30    1
     8     4     5   ar
     9     4     8    1
    10     5     6   ar
    11     5     9    1
    12     6    10    1
    13     8    11    1
    14     8    12    1
    15     8    28    1
    16    11    13    1
    17    11    26    1
    18    11    27    1
    19    13    14    1
    20    14    15    1
    21    14    16    1
    22    14    31    1
    23    16    17    1
    24    16    20    2
    25    17    18    1
    26    17    19    1
    27    17    32    1
    28    20    21    1
    29    20    22    1
    30    22    23    1
    31    22    24    1
    32    22    25    1
    33    32    33    1
    34    32    34    1
    35    13    35    1
    36    35    36    1
    37    13    37    1
    38    32    38    1
    39    38    39    1
    40    38    40    1
    41    38    41    1
@<TRIPOS>SUBSTRUCTURE
     1 1           1 GROUP             0 ****  ****    0  
@<TRIPOS>MOLECULE
Molecule Name_00001_00128
    41    41     1     0     0
SMALL
NO_CHARGES
****
Generated from the CSD

@<TRIPOS>ATOM
     1 C5      -4.4694   1.7211  -0.2484   C.ar      1 1      0.0000
     2 C4      -4.7837   0.3890  -0.4098   C.ar      1 1      0.0000
     3 C3      -3.8013  -0.5783  -0.2787   C.ar      1 1      0.0000
     4 C8      -2.4931  -0.2266   0.0159   C.ar      1 1      0.0000
     5 C7      -2.1910   1.1172   0.1743   C.ar      1 1      0.0000
     6 C6      -3.1726   2.0853   0.0435   C.ar      1 1      0.0000
     7 H4      -5.8032   0.0975  -0.6400   H         1 1      0.0000
     8 C9      -1.4219  -1.2811   0.1554   C.3       1 1      0.0000
     9 H7      -1.1729   1.4141   0.4037   H         1 1      0.0000
    10 H6      -2.9203   3.1328   0.1711   H         1 1      0.0000
    11 C10     -0.0472  -0.7006   0.4815   C.3       1 1      0.0000
    12 H9A     -1.7117  -1.9800   0.9497   H         1 1      0.0000
    13 C11      1.0704  -1.7199   0.6331   C.3       1 1      0.0000
    14 C12      2.3817  -1.0672   1.0564   C.3       1 1      0.0000
    15 H12A     3.1007  -1.8501   1.3277   H         1 1      0.0000
    16 C13      2.9777  -0.2076  -0.0167   C.2       1 1      0.0000
    17 C14      2.5296   1.2214  -0.0871   C.3       1 1      0.0000
    18 H14B     1.4607   1.2676   0.1554   H         1 1      0.0000
    19 H14A     2.6523   1.5881  -1.1135   H         1 1      0.0000
    20 N        3.8746  -0.6946  -0.8509   N.pl3     1 1      0.0000
    21 HN       4.1890  -1.6485  -0.6738   H         1 1      0.0000
    22 C        4.5598   0.0298  -1.9114   C.3       1 1      0.0000
    23 H1A      5.5799  -0.3301  -2.0275   H         1 1      0.0000
    24 H1C      4.0449  -0.0994  -2.8611   H         1 1      0.0000
    25 H1B      4.5990   1.0942  -1.6898   H         1 1      0.0000
    26 H10A     0.2299  -0.0005  -0.3164   H         1 1      0.0000
    27 H10B    -0.1247  -0.1307   1.4156   H         1 1      0.0000
    28 H9B     -1.3568  -1.8486  -0.7811   H         1 1      0.0000
    29 H5      -5.2388   2.4792  -0.3507   H         1 1      0.0000
    30 H3      -4.0588  -1.6243  -0.4082   H         1 1      0.0000
    31 H12B     2.2044  -0.4534   1.9482   H         1 1      0.0000
    32 C15      3.2844   2.1380   0.8579   C.3       1 1      0.0000
    33 H15A     4.3549   2.0951   0.6221   H         1 1      0.0000
    34 H15C     3.1541   1.7804   1.8867   H         1 1      0.0000
    35 OH       0.6890  -2.6858   1.6166   O.3       1 1      0.0000
    36 OH1     -0.0962  -3.1933   1.2943   H         1 1      0.0000
    37 H22      1.2214  -2.2302  -0.3307   H         1 1      0.0000
    38 C16      2.8143   3.5713   0.7676   C.3       1 1      0.0000
    39 H16C     1.7583   3.6473   1.0183   H         1 1      0.0000
    40 H16A     3.3721   4.2042   1.4547   H         1 1      0.0000
    41 H16B     2.9525   3.9599  -0.2392   H         1 1      0.0000
@<TRIPOS>BOND
     1     1     2   ar
     2     1     6   ar
     3     1    29    1
     4     2     3   ar
     5     2     7    1
     6     3     4   ar
     7     3    30    1
     8     4     5   ar
     9     4     8    1
    10     5     6   ar
    11     5     9    1
    12     6    10    1
    13     8    11    1
    14     8    12    1
    15     8    28    1
    16    11    13    1
    17    11    26    1
    18    11    27    1
    19    13    14    1
    20    14    15    1
    21    14    16    1
    22    14    31    1
    23    16    17    1
    24    16    20    2
    25    17    18    1
    26    17    19    1
    27    17    32    1
    28    20    21    1
    29    20    22    1
    30    22    23    1
    31    22    24    1
    32    22    25    1
    33    32    33    1
    34    32    34    1
    35    13    35    1
    36    35    36    1
    37    13    37    1
    38    32    38    1
    39    38    39    1
    40    38    40    1
    41    38    41    1
@<TRIPOS>SUBSTRUCTURE
     1 1           1 GROUP             0 ****  ****    0  
@<TRIPOS>MOLECULE
Molecule Name_00001_00129
    41    41     1     0     0
SMALL
NO_CHARGES
****
Generated from the CSD

@<TRIPOS>ATOM
     1 C5      -4.4821  -1.2054   0.6187   C.ar      1 1      0.0000
     2 C4      -4.4389   0.1528   0.8485   C.ar      1 1      0.0000
     3 C3      -3.3382   0.8915   0.4475   C.ar      1 1      0.0000
     4 C8      -2.2677   0.2823  -0.1889   C.ar      1 1      0.0000
     5 C7      -2.3242  -1.0848  -0.4125   C.ar      1 1      0.0000
     6 C6      -3.4244  -1.8243  -0.0118   C.ar      1 1      0.0000
     7 H4      -5.2691   0.6445   1.3449   H         1 1      0.0000
     8 C9      -1.0667   1.0873  -0.6230   C.3       1 1      0.0000
     9 H7      -1.4962  -1.5814  -0.9075   H         1 1      0.0000
    10 H6      -3.4537  -2.8934  -0.1946   H         1 1      0.0000
    11 C10     -0.0144   1.2346   0.4744   C.3       1 1      0.0000
    12 H9A     -0.6087   0.6021  -1.4937   H         1 1      0.0000
    13 C11      1.2181   2.0375   0.0906   C.3       1 1      0.0000
    14 C12      1.9964   1.3777  -1.0424   C.3       1 1      0.0000
    15 H12A     2.7980   2.0525  -1.3671   H         1 1      0.0000
    16 C13      2.5955   0.0618  -0.6487   C.2       1 1      0.0000
    17 C14      3.8018   0.0894   0.2411   C.3       1 1      0.0000
    18 H14B     4.3823   0.9934   0.0194   H         1 1      0.0000
    19 H14A     4.4371  -0.7757   0.0150   H         1 1      0.0000
    20 N        2.0635  -1.0718  -1.0601   N.pl3     1 1      0.0000
    21 HN       1.1921  -1.0005  -1.5852   H         1 1      0.0000
    22 C        2.5150  -2.4154  -0.7285   C.3       1 1      0.0000
    23 H1A      1.6707  -3.0965  -0.6453   H         1 1      0.0000
    24 H1C      3.1840  -2.7976  -1.4967   H         1 1      0.0000
    25 H1B      3.0496  -2.4209   0.2190   H         1 1      0.0000
    26 H10A    -0.4844   1.7163   1.3407   H         1 1      0.0000
    27 H10B     0.3076   0.2321   0.7819   H         1 1      0.0000
    28 H9B     -1.4003   2.0850  -0.9339   H         1 1      0.0000
    29 H5      -5.3444  -1.7844   0.9325   H         1 1      0.0000
    30 H3      -3.3135   1.9601   0.6335   H         1 1      0.0000
    31 H12B     1.3243   1.2232  -1.8956   H         1 1      0.0000
    32 C15      3.4615   0.0784   1.7199   C.3       1 1      0.0000
    33 H15A     2.8586  -0.8103   1.9437   H         1 1      0.0000
    34 H15C     2.8556   0.9617   1.9563   H         1 1      0.0000
    35 OH       0.8120   3.3460  -0.3198   O.3       1 1      0.0000
    36 OH1      0.3271   3.7887   0.4197   H         1 1      0.0000
    37 H22      1.8749   2.1254   0.9699   H         1 1      0.0000
    38 C16      4.6941   0.0739   2.5943   C.3       1 1      0.0000
    39 H16C     5.3016   0.9572   2.4089   H         1 1      0.0000
    40 H16A     4.4200   0.0659   3.6471   H         1 1      0.0000
    41 H16B     5.3043  -0.8048   2.3962   H         1 1      0.0000
@<TRIPOS>BOND
     1     1     2   ar
     2     1     6   ar
     3     1    29    1
     4     2     3   ar
     5     2     7    1
     6     3     4   ar
     7     3    30    1
     8     4     5   ar
     9     4     8    1
    10     5     6   ar
    11     5     9    1
    12     6    10    1
    13     8    11    1
    14     8    12    1
    15     8    28    1
    16    11    13    1
    17    11    26    1
    18    11    27    1
    19    13    14    1
    20    14    15    1
    21    14    16    1
    22    14    31    1
    23    16    17    1
    24    16    20    2
    25    17    18    1
    26    17    19    1
    27    17    32    1
    28    20    21    1
    29    20    22    1
    30    22    23    1
    31    22    24    1
    32    22    25    1
    33    32    33    1
    34    32    34    1
    35    13    35    1
    36    35    36    1
    37    13    37    1
    38    32    38    1
    39    38    39    1
    40    38    40    1
    41    38    41    1
@<TRIPOS>SUBSTRUCTURE
     1 1           1 GROUP             0 ****  ****    0  
@<TRIPOS>MOLECULE
Molecule Name_00001_00130
    41    41     1     0     0
SMALL
NO_CHARGES
****
Generated from the CSD

@<TRIPOS>ATOM
     1 C5      -4.7570  -1.2587  -0.2157   C.ar      1 1      0.0000
     2 C4      -4.7300  -0.1384   0.5865   C.ar      1 1      0.0000
     3 C3      -3.5969   0.6565   0.6332   C.ar      1 1      0.0000
     4 C8      -2.4773   0.3422  -0.1216   C.ar      1 1      0.0000
     5 C7      -2.5181  -0.7884  -0.9230   C.ar      1 1      0.0000
     6 C6      -3.6507  -1.5839  -0.9705   C.ar      1 1      0.0000
     7 H4      -5.5984   0.1215   1.1828   H         1 1      0.0000
     8 C9      -1.2412   1.2071  -0.0679   C.3       1 1      0.0000
     9 H7      -1.6520  -1.0531  -1.5205   H         1 1      0.0000
    10 H6      -3.6671  -2.4651  -1.6032   H         1 1      0.0000
    11 C10     -0.2868   0.8205   1.0604   C.3       1 1      0.0000
    12 H9A     -0.7113   1.1306  -1.0254   H         1 1      0.0000
    13 C11      0.9764   1.6603   1.1607   C.3       1 1      0.0000
    14 C12      1.8474   1.5281  -0.0837   C.3       1 1      0.0000
    15 H12A     2.6389   2.2869  -0.0496   H         1 1      0.0000
    16 C13      2.4749   0.1736  -0.2144   C.2       1 1      0.0000
    17 C14      3.5867  -0.1681   0.7315   C.3       1 1      0.0000
    18 H14B     3.6442  -1.2593   0.8279   H         1 1      0.0000
    19 H14A     3.3555   0.2401   1.7230   H         1 1      0.0000
    20 N        2.0460  -0.6844  -1.1186   N.pl3     1 1      0.0000
    21 HN       1.2267  -0.4046  -1.6577   H         1 1      0.0000
    22 C        2.5344  -2.0388  -1.3331   C.3       1 1      0.0000
    23 H1A      1.8247  -2.6158  -1.9223   H         1 1      0.0000
    24 H1C      3.4841  -2.0265  -1.8637   H         1 1      0.0000
    25 H1B      2.6832  -2.5509  -0.3848   H         1 1      0.0000
    26 H10A    -0.8282   0.8962   2.0115   H         1 1      0.0000
    27 H10B     0.0049  -0.2280   0.9231   H         1 1      0.0000
    28 H9B     -1.5440   2.2532   0.0635   H         1 1      0.0000
    29 H5      -5.6447  -1.8815  -0.2528   H         1 1      0.0000
    30 H3      -3.5853   1.5361   1.2683   H         1 1      0.0000
    31 H12B     1.2345   1.7250  -0.9720   H         1 1      0.0000
    32 C15      4.9401   0.3545   0.2864   C.3       1 1      0.0000
    33 H15A     4.8891   1.4457   0.1860   H         1 1      0.0000
    34 H15C     5.1796  -0.0612  -0.7002   H         1 1      0.0000
    35 OH       0.6107   3.0323   1.3330   O.3       1 1      0.0000
    36 OH1      0.0652   3.1285   2.1522   H         1 1      0.0000
    37 H22      1.5554   1.3309   2.0374   H         1 1      0.0000
    38 C16      6.0426  -0.0029   1.2561   C.3       1 1      0.0000
    39 H16C     6.1308  -1.0824   1.3590   H         1 1      0.0000
    40 H16A     6.9994   0.3840   0.9119   H         1 1      0.0000
    41 H16B     5.8417   0.4161   2.2399   H         1 1      0.0000
@<TRIPOS>BOND
     1     1     2   ar
     2     1     6   ar
     3     1    29    1
     4     2     3   ar
     5     2     7    1
     6     3     4   ar
     7     3    30    1
     8     4     5   ar
     9     4     8    1
    10     5     6   ar
    11     5     9    1
    12     6    10    1
    13     8    11    1
    14     8    12    1
    15     8    28    1
    16    11    13    1
    17    11    26    1
    18    11    27    1
    19    13    14    1
    20    14    15    1
    21    14    16    1
    22    14    31    1
    23    16    17    1
    24    16    20    2
    25    17    18    1
    26    17    19    1
    27    17    32    1
    28    20    21    1
    29    20    22    1
    30    22    23    1
    31    22    24    1
    32    22    25    1
    33    32    33    1
    34    32    34    1
    35    13    35    1
    36    35    36    1
    37    13    37    1
    38    32    38    1
    39    38    39    1
    40    38    40    1
    41    38    41    1
@<TRIPOS>SUBSTRUCTURE
     1 1           1 GROUP             0 ****  ****    0  
@<TRIPOS>MOLECULE
Molecule Name_00001_00131
    41    41     1     0     0
SMALL
NO_CHARGES
****
Generated from the CSD

@<TRIPOS>ATOM
     1 C5      -4.3070   1.2456  -0.8504   C.ar      1 1      0.0000
     2 C4      -4.3993   0.2348   0.0819   C.ar      1 1      0.0000
     3 C3      -3.2677  -0.1981   0.7528   C.ar      1 1      0.0000
     4 C8      -2.0302   0.3740   0.5009   C.ar      1 1      0.0000
     5 C7      -1.9520   1.3889  -0.4404   C.ar      1 1      0.0000
     6 C6      -3.0830   1.8226  -1.1118   C.ar      1 1      0.0000
     7 H4      -5.3606  -0.2227   0.2908   H         1 1      0.0000
     8 C9      -0.7965  -0.1005   1.2300   C.3       1 1      0.0000
     9 H7      -0.9928   1.8490  -0.6537   H         1 1      0.0000
    10 H6      -3.0052   2.6183  -1.8452   H         1 1      0.0000
    11 C10     -0.1144  -1.2847   0.5477   C.3       1 1      0.0000
    12 H9A     -0.0832   0.7300   1.3006   H         1 1      0.0000
    13 C11      1.1351  -1.8038   1.2407   C.3       1 1      0.0000
    14 C12      2.1957  -0.7184   1.3887   C.3       1 1      0.0000
    15 H12A     2.9919  -1.0829   2.0495   H         1 1      0.0000
    16 C13      2.7975  -0.3094   0.0787   C.2       1 1      0.0000
    17 C14      2.0966   0.7631  -0.6999   C.3       1 1      0.0000
    18 H14B     1.0137   0.6306  -0.5854   H         1 1      0.0000
    19 H14A     2.3333   0.6494  -1.7648   H         1 1      0.0000
    20 N        3.9112  -0.8653  -0.3550   N.pl3     1 1      0.0000
    21 HN       4.3698  -1.5188   0.2796   H         1 1      0.0000
    22 C        4.6234  -0.5428  -1.5830   C.3       1 1      0.0000
    23 H1A      5.6981  -0.6357  -1.4412   H         1 1      0.0000
    24 H1C      4.3285  -1.2139  -2.3870   H         1 1      0.0000
    25 H1B      4.4098   0.4765  -1.8976   H         1 1      0.0000
    26 H10A    -0.8376  -2.1066   0.4786   H         1 1      0.0000
    27 H10B     0.1545  -0.9879  -0.4736   H         1 1      0.0000
    28 H9B     -1.0751  -0.3889   2.2510   H         1 1      0.0000
    29 H5      -5.1933   1.5852  -1.3760   H         1 1      0.0000
    30 H3      -3.3507  -0.9949   1.4846   H         1 1      0.0000
    31 H12B     1.7439   0.1609   1.8642   H         1 1      0.0000
    32 C15      2.4657   2.1677  -0.2598   C.3       1 1      0.0000
    33 H15A     3.5483   2.3064  -0.3698   H         1 1      0.0000
    34 H15C     2.2194   2.2883   0.8024   H         1 1      0.0000
    35 OH       0.7796  -2.2913   2.5375   O.3       1 1      0.0000
    36 OH1      0.1091  -3.0126   2.4469   H         1 1      0.0000
    37 H22      1.5536  -2.6323   0.6487   H         1 1      0.0000
    38 C16      1.7463   3.2292  -1.0594   C.3       1 1      0.0000
    39 H16C     0.6681   3.1183  -0.9655   H         1 1      0.0000
    40 H16A     2.0164   4.2238  -0.7108   H         1 1      0.0000
    41 H16B     2.0038   3.1582  -2.1141   H         1 1      0.0000
@<TRIPOS>BOND
     1     1     2   ar
     2     1     6   ar
     3     1    29    1
     4     2     3   ar
     5     2     7    1
     6     3     4   ar
     7     3    30    1
     8     4     5   ar
     9     4     8    1
    10     5     6   ar
    11     5     9    1
    12     6    10    1
    13     8    11    1
    14     8    12    1
    15     8    28    1
    16    11    13    1
    17    11    26    1
    18    11    27    1
    19    13    14    1
    20    14    15    1
    21    14    16    1
    22    14    31    1
    23    16    17    1
    24    16    20    2
    25    17    18    1
    26    17    19    1
    27    17    32    1
    28    20    21    1
    29    20    22    1
    30    22    23    1
    31    22    24    1
    32    22    25    1
    33    32    33    1
    34    32    34    1
    35    13    35    1
    36    35    36    1
    37    13    37    1
    38    32    38    1
    39    38    39    1
    40    38    40    1
    41    38    41    1
@<TRIPOS>SUBSTRUCTURE
     1 1           1 GROUP             0 ****  ****    0  
@<TRIPOS>MOLECULE
Molecule Name_00001_00132
    41    41     1     0     0
SMALL
NO_CHARGES
****
Generated from the CSD

@<TRIPOS>ATOM
     1 C5      -5.4427   0.6830   0.1839   C.ar      1 1      0.0000
     2 C4      -4.9687   0.5892  -1.1068   C.ar      1 1      0.0000
     3 C3      -3.6382   0.2826  -1.3385   C.ar      1 1      0.0000
     4 C8      -2.7653   0.0651  -0.2836   C.ar      1 1      0.0000
     5 C7      -3.2556   0.1639   1.0094   C.ar      1 1      0.0000
     6 C6      -4.5859   0.4704   1.2423   C.ar      1 1      0.0000
     7 H4      -5.6393   0.7560  -1.9432   H         1 1      0.0000
     8 C9      -1.3143  -0.2659  -0.5366   C.3       1 1      0.0000
     9 H7      -2.5888  -0.0011   1.8494   H         1 1      0.0000
    10 H6      -4.9544   0.5435   2.2601   H         1 1      0.0000
    11 C10     -0.5128  -0.4709   0.7474   C.3       1 1      0.0000
    12 H9A     -1.2578  -1.1789  -1.1422   H         1 1      0.0000
    13 C11      0.9567  -0.8071   0.5507   C.3       1 1      0.0000
    14 C12      1.7470   0.3852   0.0227   C.3       1 1      0.0000
    15 H12A     1.7292   1.1869   0.7713   H         1 1      0.0000
    16 C13      3.1714   0.0453  -0.2950   C.2       1 1      0.0000
    17 C14      4.0424   1.1432  -0.8276   C.3       1 1      0.0000
    18 H14B     3.4461   1.7697  -1.5025   H         1 1      0.0000
    19 H14A     4.8570   0.7043  -1.4167   H         1 1      0.0000
    20 N        3.6359  -1.1716  -0.0932   N.pl3     1 1      0.0000
    21 HN       3.0015  -1.8311   0.3570   H         1 1      0.0000
    22 C        4.9981  -1.6316  -0.3210   C.3       1 1      0.0000
    23 H1A      5.2829  -2.3755   0.4201   H         1 1      0.0000
    24 H1C      5.0928  -2.0822  -1.3068   H         1 1      0.0000
    25 H1B      5.7013  -0.8040  -0.2583   H         1 1      0.0000
    26 H10A    -0.5802   0.4457   1.3463   H         1 1      0.0000
    27 H10B    -0.9793  -1.2813   1.3210   H         1 1      0.0000
    28 H9B     -0.8593   0.5472  -1.1155   H         1 1      0.0000
    29 H5      -6.4851   0.9229   0.3659   H         1 1      0.0000
    30 H3      -3.2745   0.2116  -2.3583   H         1 1      0.0000
    31 H12B     1.2596   0.7644  -0.8839   H         1 1      0.0000
    32 C15      4.6365   2.0225   0.2571   C.3       1 1      0.0000
    33 H15A     5.3655   2.7071  -0.1937   H         1 1      0.0000
    34 H15C     5.1711   1.3924   0.9785   H         1 1      0.0000
    35 OH       1.5114  -1.2194   1.8029   O.3       1 1      0.0000
    36 OH1      1.0180  -2.0077   2.1392   H         1 1      0.0000
    37 H22      1.0400  -1.6364  -0.1687   H         1 1      0.0000
    38 C16      3.5853   2.8278   0.9854   C.3       1 1      0.0000
    39 H16C     3.1182   2.2339   1.7682   H         1 1      0.0000
    40 H16A     4.0256   3.7097   1.4460   H         1 1      0.0000
    41 H16B     2.8073   3.1564   0.2994   H         1 1      0.0000
@<TRIPOS>BOND
     1     1     2   ar
     2     1     6   ar
     3     1    29    1
     4     2     3   ar
     5     2     7    1
     6     3     4   ar
     7     3    30    1
     8     4     5   ar
     9     4     8    1
    10     5     6   ar
    11     5     9    1
    12     6    10    1
    13     8    11    1
    14     8    12    1
    15     8    28    1
    16    11    13    1
    17    11    26    1
    18    11    27    1
    19    13    14    1
    20    14    15    1
    21    14    16    1
    22    14    31    1
    23    16    17    1
    24    16    20    2
    25    17    18    1
    26    17    19    1
    27    17    32    1
    28    20    21    1
    29    20    22    1
    30    22    23    1
    31    22    24    1
    32    22    25    1
    33    32    33    1
    34    32    34    1
    35    13    35    1
    36    35    36    1
    37    13    37    1
    38    32    38    1
    39    38    39    1
    40    38    40    1
    41    38    41    1
@<TRIPOS>SUBSTRUCTURE
     1 1           1 GROUP             0 ****  ****    0  
@<TRIPOS>MOLECULE
Molecule Name_00001_00133
    41    41     1     0     0
SMALL
NO_CHARGES
****
Generated from the CSD

@<TRIPOS>ATOM
     1 C5      -5.5714   0.5882   0.0520   C.ar      1 1      0.0000
     2 C4      -5.0815   0.3279  -1.2096   C.ar      1 1      0.0000
     3 C3      -3.7397   0.0350  -1.3880   C.ar      1 1      0.0000
     4 C8      -2.8712  -0.0021  -0.3080   C.ar      1 1      0.0000
     5 C7      -3.3775   0.2629   0.9552   C.ar      1 1      0.0000
     6 C6      -4.7191   0.5559   1.1346   C.ar      1 1      0.0000
     7 H4      -5.7485   0.3525  -2.0650   H         1 1      0.0000
     8 C9      -1.4080  -0.3182  -0.5033   C.3       1 1      0.0000
     9 H7      -2.7145   0.2406   1.8137   H         1 1      0.0000
    10 H6      -5.1001   0.7605   2.1297   H         1 1      0.0000
    11 C10     -0.6136  -0.3128   0.8013   C.3       1 1      0.0000
    12 H9A     -1.3166  -1.3054  -0.9727   H         1 1      0.0000
    13 C11      0.8677  -0.6254   0.6626   C.3       1 1      0.0000
    14 C12      1.6254   0.5051  -0.0249   C.3       1 1      0.0000
    15 H12A     1.5731   1.4044   0.6012   H         1 1      0.0000
    16 C13      3.0637   0.1713  -0.2807   C.2       1 1      0.0000
    17 C14      3.9107   1.2189  -0.9386   C.3       1 1      0.0000
    18 H14B     3.3180   1.7117  -1.7192   H         1 1      0.0000
    19 H14A     4.7663   0.7370  -1.4273   H         1 1      0.0000
    20 N        3.5599  -0.9956   0.0794   N.pl3     1 1      0.0000
    21 HN       2.9380  -1.6117   0.6026   H         1 1      0.0000
    22 C        4.9380  -1.4390  -0.0727   C.3       1 1      0.0000
    23 H1A      5.2407  -2.0541   0.7722   H         1 1      0.0000
    24 H1C      5.0554  -2.0281  -0.9798   H         1 1      0.0000
    25 H1B      5.6136  -0.5884  -0.1319   H         1 1      0.0000
    26 H10A    -0.7158   0.6768   1.2636   H         1 1      0.0000
    27 H10B    -1.0601  -1.0485   1.4816   H         1 1      0.0000
    28 H9B     -0.9730   0.4191  -1.1892   H         1 1      0.0000
    29 H5      -6.6226   0.8174   0.1922   H         1 1      0.0000
    30 H3      -3.3636  -0.1679  -2.3853   H         1 1      0.0000
    31 H12B     1.1367   0.7345  -0.9799   H         1 1      0.0000
    32 C15      4.4226   2.2739   0.0246   C.3       1 1      0.0000
    33 H15A     3.5706   2.7345   0.5396   H         1 1      0.0000
    34 H15C     4.9355   3.0604  -0.5426   H         1 1      0.0000
    35 OH       1.4224  -0.8377   1.9638   O.3       1 1      0.0000
    36 OH1      0.9506  -1.5861   2.4059   H         1 1      0.0000
    37 H22      0.9844  -1.5451   0.0688   H         1 1      0.0000
    38 C16      5.3728   1.7031   1.0517   C.3       1 1      0.0000
    39 H16C     6.2403   1.2578   0.5692   H         1 1      0.0000
    40 H16A     5.7228   2.4807   1.7275   H         1 1      0.0000
    41 H16B     4.8828   0.9339   1.6450   H         1 1      0.0000
@<TRIPOS>BOND
     1     1     2   ar
     2     1     6   ar
     3     1    29    1
     4     2     3   ar
     5     2     7    1
     6     3     4   ar
     7     3    30    1
     8     4     5   ar
     9     4     8    1
    10     5     6   ar
    11     5     9    1
    12     6    10    1
    13     8    11    1
    14     8    12    1
    15     8    28    1
    16    11    13    1
    17    11    26    1
    18    11    27    1
    19    13    14    1
    20    14    15    1
    21    14    16    1
    22    14    31    1
    23    16    17    1
    24    16    20    2
    25    17    18    1
    26    17    19    1
    27    17    32    1
    28    20    21    1
    29    20    22    1
    30    22    23    1
    31    22    24    1
    32    22    25    1
    33    32    33    1
    34    32    34    1
    35    13    35    1
    36    35    36    1
    37    13    37    1
    38    32    38    1
    39    38    39    1
    40    38    40    1
    41    38    41    1
@<TRIPOS>SUBSTRUCTURE
     1 1           1 GROUP             0 ****  ****    0  
@<TRIPOS>MOLECULE
Molecule Name_00001_00134
    41    41     1     0     0
SMALL
NO_CHARGES
****
Generated from the CSD

@<TRIPOS>ATOM
     1 C5      -5.4927   0.5843  -0.0385   C.ar      1 1      0.0000
     2 C4      -4.8501   0.8988  -1.2164   C.ar      1 1      0.0000
     3 C3      -3.4839   0.7058  -1.3364   C.ar      1 1      0.0000
     4 C8      -2.7434   0.1955  -0.2812   C.ar      1 1      0.0000
     5 C7      -3.4028  -0.1153   0.8981   C.ar      1 1      0.0000
     6 C6      -4.7689   0.0774   1.0191   C.ar      1 1      0.0000
     7 H4      -5.4157   1.2985  -2.0516   H         1 1      0.0000
     8 C9      -1.2538  -0.0117  -0.4113   C.3       1 1      0.0000
     9 H7      -2.8416  -0.5143   1.7366   H         1 1      0.0000
    10 H6      -5.2704  -0.1714   1.9485   H         1 1      0.0000
    11 C10     -0.6144  -0.5814   0.8534   C.3       1 1      0.0000
    12 H9A     -1.0611  -0.6950  -1.2476   H         1 1      0.0000
    13 C11      0.8866  -0.8103   0.7776   C.3       1 1      0.0000
    14 C12      1.6612   0.5027   0.7491   C.3       1 1      0.0000
    15 H12A     1.4938   1.0382   1.6917   H         1 1      0.0000
    16 C13      3.1340   0.3061   0.5542   C.2       1 1      0.0000
    17 C14      3.9979   1.5311   0.5272   C.3       1 1      0.0000
    18 H14B     5.0180   1.2490   0.8156   H         1 1      0.0000
    19 H14A     3.6302   2.2488   1.2708   H         1 1      0.0000
    20 N        3.6427  -0.9036   0.4302   N.pl3     1 1      0.0000
    21 HN       2.9962  -1.6829   0.5523   H         1 1      0.0000
    22 C        5.0493  -1.2437   0.2728   C.3       1 1      0.0000
    23 H1A      5.2194  -2.2945   0.4980   H         1 1      0.0000
    24 H1C      5.3787  -1.0583  -0.7474   H         1 1      0.0000
    25 H1B      5.6680  -0.6492   0.9415   H         1 1      0.0000
    26 H10A    -0.8172   0.1072   1.6830   H         1 1      0.0000
    27 H10B    -1.0988  -1.5379   1.0856   H         1 1      0.0000
    28 H9B     -0.7801   0.9488  -0.6492   H         1 1      0.0000
    29 H5      -6.5631   0.7351   0.0558   H         1 1      0.0000
    30 H3      -2.9871   0.9570  -2.2676   H         1 1      0.0000
    31 H12B     1.2739   1.1291  -0.0639   H         1 1      0.0000
    32 C15      4.0440   2.2075  -0.8304   C.3       1 1      0.0000
    33 H15A     4.5999   3.1493  -0.7445   H         1 1      0.0000
    34 H15C     3.0219   2.4501  -1.1465   H         1 1      0.0000
    35 OH       1.2992  -1.5731   1.9150   O.3       1 1      0.0000
    36 OH1      0.8175  -2.4367   1.9260   H         1 1      0.0000
    37 H22      1.1153  -1.3787  -0.1372   H         1 1      0.0000
    38 C16      4.6963   1.3415  -1.8832   C.3       1 1      0.0000
    39 H16C     4.1520   0.4074  -2.0057   H         1 1      0.0000
    40 H16A     4.7154   1.8511  -2.8442   H         1 1      0.0000
    41 H16B     5.7209   1.1029  -1.6057   H         1 1      0.0000
@<TRIPOS>BOND
     1     1     2   ar
     2     1     6   ar
     3     1    29    1
     4     2     3   ar
     5     2     7    1
     6     3     4   ar
     7     3    30    1
     8     4     5   ar
     9     4     8    1
    10     5     6   ar
    11     5     9    1
    12     6    10    1
    13     8    11    1
    14     8    12    1
    15     8    28    1
    16    11    13    1
    17    11    26    1
    18    11    27    1
    19    13    14    1
    20    14    15    1
    21    14    16    1
    22    14    31    1
    23    16    17    1
    24    16    20    2
    25    17    18    1
    26    17    19    1
    27    17    32    1
    28    20    21    1
    29    20    22    1
    30    22    23    1
    31    22    24    1
    32    22    25    1
    33    32    33    1
    34    32    34    1
    35    13    35    1
    36    35    36    1
    37    13    37    1
    38    32    38    1
    39    38    39    1
    40    38    40    1
    41    38    41    1
@<TRIPOS>SUBSTRUCTURE
     1 1           1 GROUP             0 ****  ****    0  
@<TRIPOS>MOLECULE
Molecule Name_00001_00135
    41    41     1     0     0
SMALL
NO_CHARGES
****
Generated from the CSD

@<TRIPOS>ATOM
     1 C5      -5.3693   0.6952   0.1587   C.ar      1 1      0.0000
     2 C4      -4.7490   1.1750  -0.9746   C.ar      1 1      0.0000
     3 C3      -3.3945   0.9620  -1.1691   C.ar      1 1      0.0000
     4 C8      -2.6434   0.2664  -0.2342   C.ar      1 1      0.0000
     5 C7      -3.2803  -0.2095   0.9016   C.ar      1 1      0.0000
     6 C6      -4.6347   0.0030   1.0971   C.ar      1 1      0.0000
     7 H4      -5.3231   1.7209  -1.7159   H         1 1      0.0000
     8 C9      -1.1663   0.0373  -0.4452   C.3       1 1      0.0000
     9 H7      -2.7105  -0.7551   1.6465   H         1 1      0.0000
    10 H6      -5.1186  -0.3764   1.9910   H         1 1      0.0000
    11 C10     -0.5125  -0.7476   0.6904   C.3       1 1      0.0000
    12 H9A     -1.0214  -0.5084  -1.3858   H         1 1      0.0000
    13 C11      0.9766  -1.0072   0.5292   C.3       1 1      0.0000
    14 C12      1.7964   0.2689   0.6850   C.3       1 1      0.0000
    15 H12A     1.6732   0.6518   1.7056   H         1 1      0.0000
    16 C13      3.2555   0.0607   0.4145   C.2       1 1      0.0000
    17 C14      4.1638   1.2433   0.5709   C.3       1 1      0.0000
    18 H14B     5.1736   0.8833   0.8034   H         1 1      0.0000
    19 H14A     3.8247   1.8491   1.4200   H         1 1      0.0000
    20 N        3.7153  -1.1255   0.0699   N.pl3     1 1      0.0000
    21 HN       3.0434  -1.8927   0.0766   H         1 1      0.0000
    22 C        5.1039  -1.4794  -0.1862   C.3       1 1      0.0000
    23 H1A      5.2514  -2.5535  -0.0949   H         1 1      0.0000
    24 H1C      5.3986  -1.1812  -1.1902   H         1 1      0.0000
    25 H1B      5.7658  -0.9849   0.5216   H         1 1      0.0000
    26 H10A    -0.6675  -0.1954   1.6255   H         1 1      0.0000
    27 H10B    -1.0240  -1.7137   0.7828   H         1 1      0.0000
    28 H9B     -0.6656   1.0085  -0.5423   H         1 1      0.0000
    29 H5      -6.4306   0.8616   0.3114   H         1 1      0.0000
    30 H3      -2.9152   1.3443  -2.0643   H         1 1      0.0000
    31 H12B     1.4101   1.0289  -0.0054   H         1 1      0.0000
    32 C15      4.2310   2.1206  -0.6655   C.3       1 1      0.0000
    33 H15A     4.5173   1.5058  -1.5277   H         1 1      0.0000
    34 H15C     5.0083   2.8818  -0.5247   H         1 1      0.0000
    35 OH       1.3934  -1.9551   1.5159   O.3       1 1      0.0000
    36 OH1      0.8818  -2.7941   1.4049   H         1 1      0.0000
    37 H22      1.1593  -1.4279  -0.4717   H         1 1      0.0000
    38 C16      2.9153   2.8035  -0.9590   C.3       1 1      0.0000
    39 H16C     2.4156   3.0908  -0.0362   H         1 1      0.0000
    40 H16A     3.0709   3.7011  -1.5538   H         1 1      0.0000
    41 H16B     2.2520   2.1415  -1.5117   H         1 1      0.0000
@<TRIPOS>BOND
     1     1     2   ar
     2     1     6   ar
     3     1    29    1
     4     2     3   ar
     5     2     7    1
     6     3     4   ar
     7     3    30    1
     8     4     5   ar
     9     4     8    1
    10     5     6   ar
    11     5     9    1
    12     6    10    1
    13     8    11    1
    14     8    12    1
    15     8    28    1
    16    11    13    1
    17    11    26    1
    18    11    27    1
    19    13    14    1
    20    14    15    1
    21    14    16    1
    22    14    31    1
    23    16    17    1
    24    16    20    2
    25    17    18    1
    26    17    19    1
    27    17    32    1
    28    20    21    1
    29    20    22    1
    30    22    23    1
    31    22    24    1
    32    22    25    1
    33    32    33    1
    34    32    34    1
    35    13    35    1
    36    35    36    1
    37    13    37    1
    38    32    38    1
    39    38    39    1
    40    38    40    1
    41    38    41    1
@<TRIPOS>SUBSTRUCTURE
     1 1           1 GROUP             0 ****  ****    0  
@<TRIPOS>MOLECULE
Molecule Name_00001_00136
    41    41     1     0     0
SMALL
NO_CHARGES
****
Generated from the CSD

@<TRIPOS>ATOM
     1 C5      -5.4888   0.2932   0.5186   C.ar      1 1      0.0000
     2 C4      -4.6383   0.6446   1.5446   C.ar      1 1      0.0000
     3 C3      -3.2789   0.7671   1.3100   C.ar      1 1      0.0000
     4 C8      -2.7527   0.5408   0.0475   C.ar      1 1      0.0000
     5 C7      -3.6198   0.1868  -0.9748   C.ar      1 1      0.0000
     6 C6      -4.9794   0.0641  -0.7413   C.ar      1 1      0.0000
     7 H4      -5.0346   0.8256   2.5382   H         1 1      0.0000
     8 C9      -1.2705   0.6712  -0.2070   C.3       1 1      0.0000
     9 H7      -3.2284   0.0037  -1.9700   H         1 1      0.0000
    10 H6      -5.6450  -0.2131  -1.5521   H         1 1      0.0000
    11 C10     -0.6180  -0.6406  -0.6389   C.3       1 1      0.0000
    12 H9A     -1.1083   1.4245  -0.9878   H         1 1      0.0000
    13 C11      0.8762  -0.5663  -0.9087   C.3       1 1      0.0000
    14 C12      1.6767  -0.3704   0.3741   C.3       1 1      0.0000
    15 H12A     1.5343  -1.2438   1.0224   H         1 1      0.0000
    16 C13      3.1420  -0.1821   0.1234   C.2       1 1      0.0000
    17 C14      3.6905   1.2085   0.2380   C.3       1 1      0.0000
    18 H14B     2.9680   1.9090  -0.1988   H         1 1      0.0000
    19 H14A     4.6162   1.2808  -0.3458   H         1 1      0.0000
    20 N        3.9142  -1.2097  -0.1686   N.pl3     1 1      0.0000
    21 HN       3.4768  -2.1304  -0.1354   H         1 1      0.0000
    22 C        5.3511  -1.1801  -0.3994   C.3       1 1      0.0000
    23 H1A      5.8202  -2.0885  -0.0273   H         1 1      0.0000
    24 H1C      5.5690  -1.0973  -1.4621   H         1 1      0.0000
    25 H1B      5.8067  -0.3316   0.1066   H         1 1      0.0000
    26 H10A    -0.7904  -1.3868   0.1466   H         1 1      0.0000
    27 H10B    -1.1171  -0.9918  -1.5504   H         1 1      0.0000
    28 H9B     -0.7822   1.0285   0.7081   H         1 1      0.0000
    29 H5      -6.5539   0.1974   0.7019   H         1 1      0.0000
    30 H3      -2.6175   1.0436   2.1245   H         1 1      0.0000
    31 H12B     1.2898   0.5071   0.9067   H         1 1      0.0000
    32 C15      3.9750   1.6293   1.6679   C.3       1 1      0.0000
    33 H15A     4.6957   0.9315   2.1117   H         1 1      0.0000
    34 H15C     3.0482   1.5692   2.2519   H         1 1      0.0000
    35 OH       1.2955  -1.7783  -1.5421   O.3       1 1      0.0000
    36 OH1      0.7967  -1.8990  -2.3874   H         1 1      0.0000
    37 H22      1.0752   0.2791  -1.5854   H         1 1      0.0000
    38 C16      4.5264   3.0336   1.7560   C.3       1 1      0.0000
    39 H16C     3.8214   3.7514   1.3419   H         1 1      0.0000
    40 H16A     4.7206   3.3075   2.7909   H         1 1      0.0000
    41 H16B     5.4594   3.1169   1.2025   H         1 1      0.0000
@<TRIPOS>BOND
     1     1     2   ar
     2     1     6   ar
     3     1    29    1
     4     2     3   ar
     5     2     7    1
     6     3     4   ar
     7     3    30    1
     8     4     5   ar
     9     4     8    1
    10     5     6   ar
    11     5     9    1
    12     6    10    1
    13     8    11    1
    14     8    12    1
    15     8    28    1
    16    11    13    1
    17    11    26    1
    18    11    27    1
    19    13    14    1
    20    14    15    1
    21    14    16    1
    22    14    31    1
    23    16    17    1
    24    16    20    2
    25    17    18    1
    26    17    19    1
    27    17    32    1
    28    20    21    1
    29    20    22    1
    30    22    23    1
    31    22    24    1
    32    22    25    1
    33    32    33    1
    34    32    34    1
    35    13    35    1
    36    35    36    1
    37    13    37    1
    38    32    38    1
    39    38    39    1
    40    38    40    1
    41    38    41    1
@<TRIPOS>SUBSTRUCTURE
     1 1           1 GROUP             0 ****  ****    0  
@<TRIPOS>MOLECULE
Molecule Name_00001_00137
    41    41     1     0     0
SMALL
NO_CHARGES
****
Generated from the CSD

@<TRIPOS>ATOM
     1 C5      -5.4762   0.2155   0.3270   C.ar      1 1      0.0000
     2 C4      -4.7280  -0.1362   1.4297   C.ar      1 1      0.0000
     3 C3      -3.3503   0.0027   1.4085   C.ar      1 1      0.0000
     4 C8      -2.7033   0.4953   0.2856   C.ar      1 1      0.0000
     5 C7      -3.4684   0.8439  -0.8168   C.ar      1 1      0.0000
     6 C6      -4.8462   0.7054  -0.7966   C.ar      1 1      0.0000
     7 H4      -5.2195  -0.5227   2.3164   H         1 1      0.0000
     8 C9      -1.2012   0.6434   0.2617   C.3       1 1      0.0000
     9 H7      -2.9817   1.2300  -1.7063   H         1 1      0.0000
    10 H6      -5.4310   0.9833  -1.6673   H         1 1      0.0000
    11 C10     -0.5282  -0.2346  -0.7915   C.3       1 1      0.0000
    12 H9A     -0.9501   1.6930   0.0648   H         1 1      0.0000
    13 C11      0.9865  -0.1247  -0.8591   C.3       1 1      0.0000
    14 C12      1.6568  -0.7460   0.3613   C.3       1 1      0.0000
    15 H12A     1.4369  -1.8206   0.3829   H         1 1      0.0000
    16 C13      3.1425  -0.5513   0.3723   C.2       1 1      0.0000
    17 C14      3.6974   0.4876   1.2999   C.3       1 1      0.0000
    18 H14B     4.7395   0.2339   1.5299   H         1 1      0.0000
    19 H14A     3.1361   0.4672   2.2420   H         1 1      0.0000
    20 N        3.9247  -1.2836  -0.3955   N.pl3     1 1      0.0000
    21 HN       3.4725  -2.0281  -0.9260   H         1 1      0.0000
    22 C        5.3779  -1.2285  -0.4609   C.3       1 1      0.0000
    23 H1A      5.7765  -2.1211  -0.9386   H         1 1      0.0000
    24 H1C      5.7052  -0.3631  -1.0333   H         1 1      0.0000
    25 H1B      5.8074  -1.1570   0.5360   H         1 1      0.0000
    26 H10A    -0.7898  -1.2802  -0.5874   H         1 1      0.0000
    27 H10B    -0.9383   0.0279  -1.7745   H         1 1      0.0000
    28 H9B     -0.8021   0.3846   1.2502   H         1 1      0.0000
    29 H5      -6.5557   0.1071   0.3433   H         1 1      0.0000
    30 H3      -2.7700  -0.2775   2.2814   H         1 1      0.0000
    31 H12B     1.2315  -0.3001   1.2689   H         1 1      0.0000
    32 C15      3.6518   1.8929   0.7289   C.3       1 1      0.0000
    33 H15A     2.6120   2.1525   0.4947   H         1 1      0.0000
    34 H15C     4.2221   1.9193  -0.2078   H         1 1      0.0000
    35 OH       1.4492  -0.7905  -2.0375   O.3       1 1      0.0000
    36 OH1      1.0362  -0.3762  -2.8348   H         1 1      0.0000
    37 H22      1.2651   0.9389  -0.9157   H         1 1      0.0000
    38 C16      4.2162   2.9204   1.6825   C.3       1 1      0.0000
    39 H16C     5.2558   2.6999   1.9159   H         1 1      0.0000
    40 H16A     4.1706   3.9165   1.2473   H         1 1      0.0000
    41 H16B     3.6546   2.9314   2.6142   H         1 1      0.0000
@<TRIPOS>BOND
     1     1     2   ar
     2     1     6   ar
     3     1    29    1
     4     2     3   ar
     5     2     7    1
     6     3     4   ar
     7     3    30    1
     8     4     5   ar
     9     4     8    1
    10     5     6   ar
    11     5     9    1
    12     6    10    1
    13     8    11    1
    14     8    12    1
    15     8    28    1
    16    11    13    1
    17    11    26    1
    18    11    27    1
    19    13    14    1
    20    14    15    1
    21    14    16    1
    22    14    31    1
    23    16    17    1
    24    16    20    2
    25    17    18    1
    26    17    19    1
    27    17    32    1
    28    20    21    1
    29    20    22    1
    30    22    23    1
    31    22    24    1
    32    22    25    1
    33    32    33    1
    34    32    34    1
    35    13    35    1
    36    35    36    1
    37    13    37    1
    38    32    38    1
    39    38    39    1
    40    38    40    1
    41    38    41    1
@<TRIPOS>SUBSTRUCTURE
     1 1           1 GROUP             0 ****  ****    0  
@<TRIPOS>MOLECULE
Molecule Name_00001_00138
    41    41     1     0     0
SMALL
NO_CHARGES
****
Generated from the CSD

@<TRIPOS>ATOM
     1 C5      -4.4025   0.0893  -1.4377   C.ar      1 1      0.0000
     2 C4      -4.4201   1.2320  -0.6673   C.ar      1 1      0.0000
     3 C3      -3.5193   1.3830   0.3737   C.ar      1 1      0.0000
     4 C8      -2.5894   0.3945   0.6572   C.ar      1 1      0.0000
     5 C7      -2.5839  -0.7500  -0.1251   C.ar      1 1      0.0000
     6 C6      -3.4843  -0.9020  -1.1663   C.ar      1 1      0.0000
     7 H4      -5.1413   2.0150  -0.8769   H         1 1      0.0000
     8 C9      -1.6098   0.5581   1.7941   C.3       1 1      0.0000
     9 H7      -1.8654  -1.5364   0.0809   H         1 1      0.0000
    10 H6      -3.4669  -1.8035  -1.7698   H         1 1      0.0000
    11 C10     -0.6404  -0.6151   1.9245   C.3       1 1      0.0000
    12 H9A     -1.0356   1.4800   1.6394   H         1 1      0.0000
    13 C11      0.4220  -0.7052   0.8410   C.3       1 1      0.0000
    14 C12      1.4591   0.4053   0.9678   C.3       1 1      0.0000
    15 H12A     1.9972   0.2865   1.9164   H         1 1      0.0000
    16 C13      2.4486   0.4097  -0.1576   C.2       1 1      0.0000
    17 C14      3.5269   1.4508  -0.1267   C.3       1 1      0.0000
    18 H14B     3.0936   2.3963   0.2223   H         1 1      0.0000
    19 H14A     3.9007   1.6139  -1.1449   H         1 1      0.0000
    20 N        2.3753  -0.4837  -1.1240   N.pl3     1 1      0.0000
    21 HN       1.6676  -1.2104  -1.0181   H         1 1      0.0000
    22 C        3.2837  -0.6200  -2.2532   C.3       1 1      0.0000
    23 H1A      3.4085  -1.6665  -2.5236   H         1 1      0.0000
    24 H1C      2.9007  -0.0890  -3.1221   H         1 1      0.0000
    25 H1B      4.2635  -0.2130  -2.0126   H         1 1      0.0000
    26 H10A    -0.1371  -0.5405   2.8963   H         1 1      0.0000
    27 H10B    -1.2208  -1.5460   1.9182   H         1 1      0.0000
    28 H9B     -2.1679   0.6660   2.7323   H         1 1      0.0000
    29 H5      -5.1079  -0.0292  -2.2535   H         1 1      0.0000
    30 H3      -3.5415   2.2860   0.9747   H         1 1      0.0000
    31 H12B     0.9448   1.3738   0.9950   H         1 1      0.0000
    32 C15      4.6924   1.0862   0.7742   C.3       1 1      0.0000
    33 H15A     5.1294   0.1401   0.4319   H         1 1      0.0000
    34 H15C     4.3234   0.9338   1.7960   H         1 1      0.0000
    35 OH       1.0783  -1.9724   0.9369   O.3       1 1      0.0000
    36 OH1      0.4140  -2.6974   0.8314   H         1 1      0.0000
    37 H22     -0.0647  -0.6272  -0.1436   H         1 1      0.0000
    38 C16      5.7646   2.1510   0.7878   C.3       1 1      0.0000
    39 H16C     5.3638   3.0974   1.1447   H         1 1      0.0000
    40 H16A     6.5860   1.8630   1.4406   H         1 1      0.0000
    41 H16B     6.1650   2.3079  -0.2117   H         1 1      0.0000
@<TRIPOS>BOND
     1     1     2   ar
     2     1     6   ar
     3     1    29    1
     4     2     3   ar
     5     2     7    1
     6     3     4   ar
     7     3    30    1
     8     4     5   ar
     9     4     8    1
    10     5     6   ar
    11     5     9    1
    12     6    10    1
    13     8    11    1
    14     8    12    1
    15     8    28    1
    16    11    13    1
    17    11    26    1
    18    11    27    1
    19    13    14    1
    20    14    15    1
    21    14    16    1
    22    14    31    1
    23    16    17    1
    24    16    20    2
    25    17    18    1
    26    17    19    1
    27    17    32    1
    28    20    21    1
    29    20    22    1
    30    22    23    1
    31    22    24    1
    32    22    25    1
    33    32    33    1
    34    32    34    1
    35    13    35    1
    36    35    36    1
    37    13    37    1
    38    32    38    1
    39    38    39    1
    40    38    40    1
    41    38    41    1
@<TRIPOS>SUBSTRUCTURE
     1 1           1 GROUP             0 ****  ****    0  
@<TRIPOS>MOLECULE
Molecule Name_00001_00139
    41    41     1     0     0
SMALL
NO_CHARGES
****
Generated from the CSD

@<TRIPOS>ATOM
     1 C5      -4.1629   1.0006  -1.2197   C.ar      1 1      0.0000
     2 C4      -4.1040   1.6624  -0.0123   C.ar      1 1      0.0000
     3 C3      -3.2367   1.2293   0.9767   C.ar      1 1      0.0000
     4 C8      -2.4171   0.1302   0.7711   C.ar      1 1      0.0000
     5 C7      -2.4878  -0.5266  -0.4478   C.ar      1 1      0.0000
     6 C6      -3.3548  -0.0943  -1.4375   C.ar      1 1      0.0000
     7 H4      -4.7386   2.5247   0.1639   H         1 1      0.0000
     8 C9      -1.4742  -0.3436   1.8506   C.3       1 1      0.0000
     9 H7      -1.8561  -1.3900  -0.6286   H         1 1      0.0000
    10 H6      -3.3979  -0.6188  -2.3863   H         1 1      0.0000
    11 C10     -0.6266  -1.5406   1.4241   C.3       1 1      0.0000
    12 H9A     -0.8094   0.4829   2.1305   H         1 1      0.0000
    13 C11      0.4664  -1.2366   0.4122   C.3       1 1      0.0000
    14 C12      1.5979  -0.4193   1.0257   C.3       1 1      0.0000
    15 H12A     2.0827  -1.0116   1.8115   H         1 1      0.0000
    16 C13      2.6290  -0.0052   0.0202   C.2       1 1      0.0000
    17 C14      3.7989   0.7903   0.5164   C.3       1 1      0.0000
    18 H14B     4.6398   0.6476  -0.1735   H         1 1      0.0000
    19 H14A     4.1065   0.4070   1.4970   H         1 1      0.0000
    20 N        2.5115  -0.3480  -1.2471   N.pl3     1 1      0.0000
    21 HN       1.7344  -0.9660  -1.4803   H         1 1      0.0000
    22 C        3.4488  -0.0483  -2.3198   C.3       1 1      0.0000
    23 H1A      3.2853  -0.7071  -3.1700   H         1 1      0.0000
    24 H1C      3.3304   0.9786  -2.6592   H         1 1      0.0000
    25 H1B      4.4753  -0.1773  -1.9835   H         1 1      0.0000
    26 H10A    -0.1590  -1.9688   2.3193   H         1 1      0.0000
    27 H10B    -1.2918  -2.3011   0.9969   H         1 1      0.0000
    28 H9B     -2.0579  -0.6176   2.7381   H         1 1      0.0000
    29 H5      -4.8421   1.3398  -1.9949   H         1 1      0.0000
    30 H3      -3.1981   1.7567   1.9241   H         1 1      0.0000
    31 H12B     1.1770   0.4780   1.4959   H         1 1      0.0000
    32 C15      3.5119   2.2757   0.6354   C.3       1 1      0.0000
    33 H15A     2.6702   2.4256   1.3227   H         1 1      0.0000
    34 H15C     3.2151   2.6646  -0.3465   H         1 1      0.0000
    35 OH       0.9951  -2.4687  -0.0859   O.3       1 1      0.0000
    36 OH1      0.2701  -2.9933  -0.5067   H         1 1      0.0000
    37 H22      0.0304  -0.6694  -0.4246   H         1 1      0.0000
    38 C16      4.7060   3.0544   1.1370   C.3       1 1      0.0000
    39 H16C     5.5514   2.9415   0.4616   H         1 1      0.0000
    40 H16A     4.4714   4.1141   1.2123   H         1 1      0.0000
    41 H16B     5.0093   2.7036   2.1213   H         1 1      0.0000
@<TRIPOS>BOND
     1     1     2   ar
     2     1     6   ar
     3     1    29    1
     4     2     3   ar
     5     2     7    1
     6     3     4   ar
     7     3    30    1
     8     4     5   ar
     9     4     8    1
    10     5     6   ar
    11     5     9    1
    12     6    10    1
    13     8    11    1
    14     8    12    1
    15     8    28    1
    16    11    13    1
    17    11    26    1
    18    11    27    1
    19    13    14    1
    20    14    15    1
    21    14    16    1
    22    14    31    1
    23    16    17    1
    24    16    20    2
    25    17    18    1
    26    17    19    1
    27    17    32    1
    28    20    21    1
    29    20    22    1
    30    22    23    1
    31    22    24    1
    32    22    25    1
    33    32    33    1
    34    32    34    1
    35    13    35    1
    36    35    36    1
    37    13    37    1
    38    32    38    1
    39    38    39    1
    40    38    40    1
    41    38    41    1
@<TRIPOS>SUBSTRUCTURE
     1 1           1 GROUP             0 ****  ****    0  
@<TRIPOS>MOLECULE
Molecule Name_00001_00140
    41    41     1     0     0
SMALL
NO_CHARGES
****
Generated from the CSD

@<TRIPOS>ATOM
     1 C5      -3.7216   1.5036  -1.1745   C.ar      1 1      0.0000
     2 C4      -2.9115   0.5073  -1.6750   C.ar      1 1      0.0000
     3 C3      -2.3564  -0.4320  -0.8221   C.ar      1 1      0.0000
     4 C8      -2.6044  -0.3878   0.5412   C.ar      1 1      0.0000
     5 C7      -3.4201   0.6206   1.0310   C.ar      1 1      0.0000
     6 C6      -3.9757   1.5604   0.1789   C.ar      1 1      0.0000
     7 H4      -2.7083   0.4588  -2.7397   H         1 1      0.0000
     8 C9      -1.9964  -1.4099   1.4710   C.3       1 1      0.0000
     9 H7      -3.6256   0.6742   2.0950   H         1 1      0.0000
    10 H6      -4.6125   2.3431   0.5777   H         1 1      0.0000
    11 C10     -0.6086  -1.0150   1.9720   C.3       1 1      0.0000
    12 H9A     -2.6612  -1.5473   2.3327   H         1 1      0.0000
    13 C11      0.4932  -1.0409   0.9249   C.3       1 1      0.0000
    14 C12      1.5721  -0.0018   1.2090   C.3       1 1      0.0000
    15 H12A     2.0644  -0.2463   2.1583   H         1 1      0.0000
    16 C13      2.6070   0.0741   0.1278   C.2       1 1      0.0000
    17 C14      3.7280   1.0527   0.3105   C.3       1 1      0.0000
    18 H14B     4.5905   0.7138  -0.2766   H         1 1      0.0000
    19 H14A     4.0293   1.0639   1.3651   H         1 1      0.0000
    20 N        2.5348  -0.7073  -0.9313   N.pl3     1 1      0.0000
    21 HN       1.7920  -1.4060  -0.9305   H         1 1      0.0000
    22 C        3.4828  -0.7669  -2.0344   C.3       1 1      0.0000
    23 H1A      3.3714  -1.6964  -2.5887   H         1 1      0.0000
    24 H1C      3.3243   0.0597  -2.7238   H         1 1      0.0000
    25 H1B      4.5058  -0.7110  -1.6685   H         1 1      0.0000
    26 H10A    -0.6670  -0.0011   2.3867   H         1 1      0.0000
    27 H10B    -0.3282  -1.6946   2.7862   H         1 1      0.0000
    28 H9B     -1.9265  -2.3710   0.9467   H         1 1      0.0000
    29 H5      -4.1569   2.2396  -1.8424   H         1 1      0.0000
    30 H3      -1.7195  -1.2121  -1.2259   H         1 1      0.0000
    31 H12B     1.1004   0.9822   1.3215   H         1 1      0.0000
    32 C15      3.3720   2.4649  -0.1157   C.3       1 1      0.0000
    33 H15A     2.5085   2.8095   0.4665   H         1 1      0.0000
    34 H15C     3.0812   2.4590  -1.1735   H         1 1      0.0000
    35 OH       1.0883  -2.3415   0.9077   O.3       1 1      0.0000
    36 OH1      0.3976  -3.0182   0.7002   H         1 1      0.0000
    37 H22      0.0520  -0.8356  -0.0627   H         1 1      0.0000
    38 C16      4.5177   3.4310   0.0783   C.3       1 1      0.0000
    39 H16C     5.3831   3.1254  -0.5061   H         1 1      0.0000
    40 H16A     4.2341   4.4336  -0.2350   H         1 1      0.0000
    41 H16B     4.8132   3.4737   1.1245   H         1 1      0.0000
@<TRIPOS>BOND
     1     1     2   ar
     2     1     6   ar
     3     1    29    1
     4     2     3   ar
     5     2     7    1
     6     3     4   ar
     7     3    30    1
     8     4     5   ar
     9     4     8    1
    10     5     6   ar
    11     5     9    1
    12     6    10    1
    13     8    11    1
    14     8    12    1
    15     8    28    1
    16    11    13    1
    17    11    26    1
    18    11    27    1
    19    13    14    1
    20    14    15    1
    21    14    16    1
    22    14    31    1
    23    16    17    1
    24    16    20    2
    25    17    18    1
    26    17    19    1
    27    17    32    1
    28    20    21    1
    29    20    22    1
    30    22    23    1
    31    22    24    1
    32    22    25    1
    33    32    33    1
    34    32    34    1
    35    13    35    1
    36    35    36    1
    37    13    37    1
    38    32    38    1
    39    38    39    1
    40    38    40    1
    41    38    41    1
@<TRIPOS>SUBSTRUCTURE
     1 1           1 GROUP             0 ****  ****    0  
@<TRIPOS>MOLECULE
Molecule Name_00001_00141
    41    41     1     0     0
SMALL
NO_CHARGES
****
Generated from the CSD

@<TRIPOS>ATOM
     1 C5      -4.4396  -1.2877   0.7858   C.ar      1 1      0.0000
     2 C4      -4.5544   0.0409   1.1334   C.ar      1 1      0.0000
     3 C3      -3.7385   0.9886   0.5384   C.ar      1 1      0.0000
     4 C8      -2.7985   0.6205  -0.4119   C.ar      1 1      0.0000
     5 C7      -2.6932  -0.7196  -0.7510   C.ar      1 1      0.0000
     6 C6      -3.5086  -1.6681  -0.1565   C.ar      1 1      0.0000
     7 H4      -5.2857   0.3452   1.8750   H         1 1      0.0000
     8 C9      -1.9071   1.6534  -1.0579   C.3       1 1      0.0000
     9 H7      -1.9629  -1.0292  -1.4913   H         1 1      0.0000
    10 H6      -3.4143  -2.7130  -0.4332   H         1 1      0.0000
    11 C10     -0.6335   1.9296  -0.2612   C.3       1 1      0.0000
    12 H9A     -1.6320   1.3082  -2.0622   H         1 1      0.0000
    13 C11      0.3742   0.7917  -0.2297   C.3       1 1      0.0000
    14 C12      1.8066   1.3035  -0.1241   C.3       1 1      0.0000
    15 H12A     1.9296   1.8303   0.8302   H         1 1      0.0000
    16 C13      2.8247   0.2074  -0.2116   C.2       1 1      0.0000
    17 C14      4.2690   0.5944  -0.1023   C.3       1 1      0.0000
    18 H14B     4.4257   1.5295  -0.6541   H         1 1      0.0000
    19 H14A     4.8866  -0.1776  -0.5773   H         1 1      0.0000
    20 N        2.4531  -1.0484  -0.3610   N.pl3     1 1      0.0000
    21 HN       1.4502  -1.2316  -0.3338   H         1 1      0.0000
    22 C        3.3255  -2.2120  -0.4242   C.3       1 1      0.0000
    23 H1A      2.8539  -3.0734   0.0441   H         1 1      0.0000
    24 H1C      3.5507  -2.4690  -1.4572   H         1 1      0.0000
    25 H1B      4.2651  -2.0192   0.0891   H         1 1      0.0000
    26 H10A    -0.1435   2.8130  -0.6890   H         1 1      0.0000
    27 H10B    -0.9162   2.1700   0.7711   H         1 1      0.0000
    28 H9B     -2.4687   2.5892  -1.1688   H         1 1      0.0000
    29 H5      -5.0789  -2.0304   1.2516   H         1 1      0.0000
    30 H3      -3.8362   2.0321   0.8193   H         1 1      0.0000
    31 H12B     1.9889   2.0254  -0.9298   H         1 1      0.0000
    32 C15      4.7355   0.7881   1.3286   C.3       1 1      0.0000
    33 H15A     4.5798  -0.1433   1.8869   H         1 1      0.0000
    34 H15C     4.1272   1.5680   1.8030   H         1 1      0.0000
    35 OH       0.0928  -0.0481   0.8934   O.3       1 1      0.0000
    36 OH1     -0.8311   0.1162   1.2055   H         1 1      0.0000
    37 H22      0.2742   0.2007  -1.1532   H         1 1      0.0000
    38 C16      6.1934   1.1773   1.4112   C.3       1 1      0.0000
    39 H16C     6.3737   2.1114   0.8832   H         1 1      0.0000
    40 H16A     6.4994   1.3090   2.4469   H         1 1      0.0000
    41 H16B     6.8233   0.4097   0.9666   H         1 1      0.0000
@<TRIPOS>BOND
     1     1     2   ar
     2     1     6   ar
     3     1    29    1
     4     2     3   ar
     5     2     7    1
     6     3     4   ar
     7     3    30    1
     8     4     5   ar
     9     4     8    1
    10     5     6   ar
    11     5     9    1
    12     6    10    1
    13     8    11    1
    14     8    12    1
    15     8    28    1
    16    11    13    1
    17    11    26    1
    18    11    27    1
    19    13    14    1
    20    14    15    1
    21    14    16    1
    22    14    31    1
    23    16    17    1
    24    16    20    2
    25    17    18    1
    26    17    19    1
    27    17    32    1
    28    20    21    1
    29    20    22    1
    30    22    23    1
    31    22    24    1
    32    22    25    1
    33    32    33    1
    34    32    34    1
    35    13    35    1
    36    35    36    1
    37    13    37    1
    38    32    38    1
    39    38    39    1
    40    38    40    1
    41    38    41    1
@<TRIPOS>SUBSTRUCTURE
     1 1           1 GROUP             0 ****  ****    0  
@<TRIPOS>MOLECULE
Molecule Name_00001_00142
    41    41     1     0     0
SMALL
NO_CHARGES
****
Generated from the CSD

@<TRIPOS>ATOM
     1 C5      -4.5563  -1.2914  -0.3701   C.ar      1 1      0.0000
     2 C4      -4.6845  -0.4866   0.7414   C.ar      1 1      0.0000
     3 C3      -3.8008   0.5595   0.9483   C.ar      1 1      0.0000
     4 C8      -2.7789   0.8148   0.0469   C.ar      1 1      0.0000
     5 C7      -2.6612  -0.0035  -1.0661   C.ar      1 1      0.0000
     6 C6      -3.5443  -1.0499  -1.2739   C.ar      1 1      0.0000
     7 H4      -5.4794  -0.6731   1.4559   H         1 1      0.0000
     8 C9      -1.8140   1.9532   0.2745   C.3       1 1      0.0000
     9 H7      -1.8674   0.1781  -1.7831   H         1 1      0.0000
    10 H6      -3.4392  -1.6810  -2.1502   H         1 1      0.0000
    11 C10     -0.6200   1.5632   1.1436   C.3       1 1      0.0000
    12 H9A     -1.4476   2.3088  -0.6965   H         1 1      0.0000
    13 C11      0.3697   0.6064   0.4986   C.3       1 1      0.0000
    14 C12      1.7961   0.8569   0.9755   C.3       1 1      0.0000
    15 H12A     1.8543   0.6565   2.0525   H         1 1      0.0000
    16 C13      2.8055   0.0069   0.2655   C.2       1 1      0.0000
    17 C14      4.2421   0.1578   0.6671   C.3       1 1      0.0000
    18 H14B     4.7760  -0.7680   0.4196   H         1 1      0.0000
    19 H14A     4.3009   0.2934   1.7539   H         1 1      0.0000
    20 N        2.4319  -0.8508  -0.6630   N.pl3     1 1      0.0000
    21 HN       1.4277  -0.9544  -0.8081   H         1 1      0.0000
    22 C        3.2934  -1.7603  -1.4043   C.3       1 1      0.0000
    23 H1A      2.7039  -2.5147  -1.9211   H         1 1      0.0000
    24 H1C      3.8768  -1.2193  -2.1465   H         1 1      0.0000
    25 H1B      3.9846  -2.2693  -0.7359   H         1 1      0.0000
    26 H10A    -0.0834   2.4781   1.4236   H         1 1      0.0000
    27 H10B    -0.9981   1.1012   2.0640   H         1 1      0.0000
    28 H9B     -2.3485   2.7827   0.7537   H         1 1      0.0000
    29 H5      -5.2485  -2.1109  -0.5327   H         1 1      0.0000
    30 H3      -3.9097   1.1870   1.8267   H         1 1      0.0000
    31 H12B     2.0454   1.9136   0.8187   H         1 1      0.0000
    32 C15      4.9402   1.3207  -0.0136   C.3       1 1      0.0000
    33 H15A     4.4099   2.2500   0.2283   H         1 1      0.0000
    34 H15C     4.8932   1.1821  -1.1008   H         1 1      0.0000
    35 OH      -0.0032  -0.7362   0.8211   O.3       1 1      0.0000
    36 OH1     -0.9806  -0.8423   0.7145   H         1 1      0.0000
    37 H22      0.3315   0.7364  -0.5941   H         1 1      0.0000
    38 C16      6.3856   1.4509   0.4078   C.3       1 1      0.0000
    39 H16C     6.9423   0.5496   0.1598   H         1 1      0.0000
    40 H16A     6.8597   2.2912  -0.0949   H         1 1      0.0000
    41 H16B     6.4614   1.6115   1.4812   H         1 1      0.0000
@<TRIPOS>BOND
     1     1     2   ar
     2     1     6   ar
     3     1    29    1
     4     2     3   ar
     5     2     7    1
     6     3     4   ar
     7     3    30    1
     8     4     5   ar
     9     4     8    1
    10     5     6   ar
    11     5     9    1
    12     6    10    1
    13     8    11    1
    14     8    12    1
    15     8    28    1
    16    11    13    1
    17    11    26    1
    18    11    27    1
    19    13    14    1
    20    14    15    1
    21    14    16    1
    22    14    31    1
    23    16    17    1
    24    16    20    2
    25    17    18    1
    26    17    19    1
    27    17    32    1
    28    20    21    1
    29    20    22    1
    30    22    23    1
    31    22    24    1
    32    22    25    1
    33    32    33    1
    34    32    34    1
    35    13    35    1
    36    35    36    1
    37    13    37    1
    38    32    38    1
    39    38    39    1
    40    38    40    1
    41    38    41    1
@<TRIPOS>SUBSTRUCTURE
     1 1           1 GROUP             0 ****  ****    0  
@<TRIPOS>MOLECULE
Molecule Name_00001_00143
    41    41     1     0     0
SMALL
NO_CHARGES
****
Generated from the CSD

@<TRIPOS>ATOM
     1 C5      -4.3497  -0.1441  -1.4197   C.ar      1 1      0.0000
     2 C4      -3.3637  -1.0814  -1.1989   C.ar      1 1      0.0000
     3 C3      -2.5332  -0.9707  -0.0962   C.ar      1 1      0.0000
     4 C8      -2.6782   0.0773   0.7997   C.ar      1 1      0.0000
     5 C7      -3.6733   1.0135   0.5645   C.ar      1 1      0.0000
     6 C6      -4.5044   0.9037  -0.5379   C.ar      1 1      0.0000
     7 H4      -3.2379  -1.9078  -1.8906   H         1 1      0.0000
     8 C9      -1.7705   0.1994   1.9998   C.3       1 1      0.0000
     9 H7      -3.8027   1.8424   1.2526   H         1 1      0.0000
    10 H6      -5.2789   1.6442  -0.7077   H         1 1      0.0000
    11 C10     -0.4784   0.9570   1.7004   C.3       1 1      0.0000
    12 H9A     -2.3098   0.7168   2.8028   H         1 1      0.0000
    13 C11      0.5002   0.2385   0.7855   C.3       1 1      0.0000
    14 C12      1.7507   1.0710   0.5246   C.3       1 1      0.0000
    15 H12A     2.2884   1.2160   1.4698   H         1 1      0.0000
    16 C13      2.6749   0.4379  -0.4706   C.2       1 1      0.0000
    17 C14      3.9369   1.1735  -0.8084   C.3       1 1      0.0000
    18 H14B     3.7198   2.2483  -0.8418   H         1 1      0.0000
    19 H14A     4.2737   0.8726  -1.8080   H         1 1      0.0000
    20 N        2.3884  -0.7305  -1.0094   N.pl3     1 1      0.0000
    21 HN       1.5568  -1.2026  -0.6548   H         1 1      0.0000
    22 C        3.2055  -1.4756  -1.9561   C.3       1 1      0.0000
    23 H1A      3.1114  -2.5463  -1.7874   H         1 1      0.0000
    24 H1C      2.8988  -1.2655  -2.9786   H         1 1      0.0000
    25 H1B      4.2550  -1.2076  -1.8557   H         1 1      0.0000
    26 H10A    -0.7403   1.9175   1.2398   H         1 1      0.0000
    27 H10B     0.0274   1.1677   2.6508   H         1 1      0.0000
    28 H9B     -1.5196  -0.8059   2.3602   H         1 1      0.0000
    29 H5      -5.0007  -0.2306  -2.2834   H         1 1      0.0000
    30 H3      -1.7596  -1.7134   0.0685   H         1 1      0.0000
    31 H12B     1.4517   2.0599   0.1556   H         1 1      0.0000
    32 C15      5.0597   0.9330   0.1837   C.3       1 1      0.0000
    33 H15A     5.9824   1.3850  -0.2008   H         1 1      0.0000
    34 H15C     5.2307  -0.1464   0.2790   H         1 1      0.0000
    35 OH       0.8800  -1.0003   1.3912   O.3       1 1      0.0000
    36 OH1      0.0834  -1.5780   1.4893   H         1 1      0.0000
    37 H22      0.0040   0.0305  -0.1751   H         1 1      0.0000
    38 C16      4.7564   1.5094   1.5473   C.3       1 1      0.0000
    39 H16C     4.1414   0.8246   2.1274   H         1 1      0.0000
    40 H16A     5.6746   1.6927   2.1014   H         1 1      0.0000
    41 H16B     4.2211   2.4523   1.4571   H         1 1      0.0000
@<TRIPOS>BOND
     1     1     2   ar
     2     1     6   ar
     3     1    29    1
     4     2     3   ar
     5     2     7    1
     6     3     4   ar
     7     3    30    1
     8     4     5   ar
     9     4     8    1
    10     5     6   ar
    11     5     9    1
    12     6    10    1
    13     8    11    1
    14     8    12    1
    15     8    28    1
    16    11    13    1
    17    11    26    1
    18    11    27    1
    19    13    14    1
    20    14    15    1
    21    14    16    1
    22    14    31    1
    23    16    17    1
    24    16    20    2
    25    17    18    1
    26    17    19    1
    27    17    32    1
    28    20    21    1
    29    20    22    1
    30    22    23    1
    31    22    24    1
    32    22    25    1
    33    32    33    1
    34    32    34    1
    35    13    35    1
    36    35    36    1
    37    13    37    1
    38    32    38    1
    39    38    39    1
    40    38    40    1
    41    38    41    1
@<TRIPOS>SUBSTRUCTURE
     1 1           1 GROUP             0 ****  ****    0  
@<TRIPOS>MOLECULE
Molecule Name_00001_00144
    41    41     1     0     0
SMALL
NO_CHARGES
****
Generated from the CSD

@<TRIPOS>ATOM
     1 C5      -4.3196  -0.5254  -1.4140   C.ar      1 1      0.0000
     2 C4      -3.3030  -1.3533  -0.9892   C.ar      1 1      0.0000
     3 C3      -2.5213  -0.9943   0.0962   C.ar      1 1      0.0000
     4 C8      -2.7463   0.1958   0.7709   C.ar      1 1      0.0000
     5 C7      -3.7715   1.0194   0.3318   C.ar      1 1      0.0000
     6 C6      -4.5538   0.6613  -0.7534   C.ar      1 1      0.0000
     7 H4      -3.1146  -2.2883  -1.5063   H         1 1      0.0000
     8 C9      -1.8918   0.5882   1.9519   C.3       1 1      0.0000
     9 H7      -3.9633   1.9560   0.8448   H         1 1      0.0000
    10 H6      -5.3528   1.3165  -1.0844   H         1 1      0.0000
    11 C10     -0.6234   1.3393   1.5517   C.3       1 1      0.0000
    12 H9A     -2.4838   1.2207   2.6250   H         1 1      0.0000
    13 C11      0.4202   0.5106   0.8202   C.3       1 1      0.0000
    14 C12      1.6424   1.3403   0.4424   C.3       1 1      0.0000
    15 H12A     2.1351   1.6902   1.3579   H         1 1      0.0000
    16 C13      2.6324   0.5765  -0.3836   C.2       1 1      0.0000
    17 C14      3.8836   1.2903  -0.7991   C.3       1 1      0.0000
    18 H14B     3.6269   2.3216  -1.0710   H         1 1      0.0000
    19 H14A     4.2962   0.8054  -1.6922   H         1 1      0.0000
    20 N        2.4100  -0.6806  -0.7118   N.pl3     1 1      0.0000
    21 HN       1.5790  -1.1147  -0.3105   H         1 1      0.0000
    22 C        3.2945  -1.5500  -1.4738   C.3       1 1      0.0000
    23 H1A      3.2470  -2.5710  -1.1007   H         1 1      0.0000
    24 H1C      3.0133  -1.5601  -2.5248   H         1 1      0.0000
    25 H1B      4.3257  -1.2108  -1.4027   H         1 1      0.0000
    26 H10A    -0.9090   2.1808   0.9086   H         1 1      0.0000
    27 H10B    -0.1643   1.7513   2.4589   H         1 1      0.0000
    28 H9B     -1.6114  -0.3168   2.5048   H         1 1      0.0000
    29 H5      -4.9324  -0.8064  -2.2641   H         1 1      0.0000
    30 H3      -1.7229  -1.6526   0.4226   H         1 1      0.0000
    31 H12B     1.3152   2.2241  -0.1191   H         1 1      0.0000
    32 C15      4.9483   1.3211   0.2818   C.3       1 1      0.0000
    33 H15A     4.5282   1.7752   1.1877   H         1 1      0.0000
    34 H15C     5.7820   1.9510  -0.0522   H         1 1      0.0000
    35 OH       0.8300  -0.5705   1.6623   O.3       1 1      0.0000
    36 OH1      0.0596  -1.1665   1.8332   H         1 1      0.0000
    37 H22     -0.0290   0.0999  -0.0972   H         1 1      0.0000
    38 C16      5.4705  -0.0573   0.6150   C.3       1 1      0.0000
    39 H16C     5.9137  -0.5242  -0.2620   H         1 1      0.0000
    40 H16A     6.2308  -0.0044   1.3915   H         1 1      0.0000
    41 H16B     4.6668  -0.6986   0.9708   H         1 1      0.0000
@<TRIPOS>BOND
     1     1     2   ar
     2     1     6   ar
     3     1    29    1
     4     2     3   ar
     5     2     7    1
     6     3     4   ar
     7     3    30    1
     8     4     5   ar
     9     4     8    1
    10     5     6   ar
    11     5     9    1
    12     6    10    1
    13     8    11    1
    14     8    12    1
    15     8    28    1
    16    11    13    1
    17    11    26    1
    18    11    27    1
    19    13    14    1
    20    14    15    1
    21    14    16    1
    22    14    31    1
    23    16    17    1
    24    16    20    2
    25    17    18    1
    26    17    19    1
    27    17    32    1
    28    20    21    1
    29    20    22    1
    30    22    23    1
    31    22    24    1
    32    22    25    1
    33    32    33    1
    34    32    34    1
    35    13    35    1
    36    35    36    1
    37    13    37    1
    38    32    38    1
    39    38    39    1
    40    38    40    1
    41    38    41    1
@<TRIPOS>SUBSTRUCTURE
     1 1           1 GROUP             0 ****  ****    0  
@<TRIPOS>MOLECULE
Molecule Name_00001_00145
    41    41     1     0     0
SMALL
NO_CHARGES
****
Generated from the CSD

@<TRIPOS>ATOM
     1 C5      -4.0275   1.0955  -1.3115   C.ar      1 1      0.0000
     2 C4      -3.1345   0.1039  -1.6563   C.ar      1 1      0.0000
     3 C3      -2.4484  -0.5873  -0.6717   C.ar      1 1      0.0000
     4 C8      -2.6466  -0.2968   0.6693   C.ar      1 1      0.0000
     5 C7      -3.5469   0.7038   1.0015   C.ar      1 1      0.0000
     6 C6      -4.2336   1.3956   0.0177   C.ar      1 1      0.0000
     7 H4      -2.9687  -0.1357  -2.7014   H         1 1      0.0000
     8 C9      -1.8961  -1.0483   1.7421   C.3       1 1      0.0000
     9 H7      -3.7156   0.9479   2.0451   H         1 1      0.0000
    10 H6      -4.9353   2.1756   0.2940   H         1 1      0.0000
    11 C10     -0.5343  -0.4355   2.0631   C.3       1 1      0.0000
    12 H9A     -2.5035  -1.0664   2.6554   H         1 1      0.0000
    13 C11      0.5109  -0.5614   0.9664   C.3       1 1      0.0000
    14 C12      1.8309   0.0916   1.3612   C.3       1 1      0.0000
    15 H12A     2.2485  -0.4385   2.2261   H         1 1      0.0000
    16 C13      2.8385   0.0858   0.2520   C.2       1 1      0.0000
    17 C14      4.1819   0.6885   0.5345   C.3       1 1      0.0000
    18 H14B     4.9170   0.2462  -0.1492   H         1 1      0.0000
    19 H14A     4.4848   0.4322   1.5571   H         1 1      0.0000
    20 N        2.5505  -0.4476  -0.9184   N.pl3     1 1      0.0000
    21 HN       1.6479  -0.9164  -0.9942   H         1 1      0.0000
    22 C        3.4379  -0.5553  -2.0673   C.3       1 1      0.0000
    23 H1A      3.0514  -1.2737  -2.7872   H         1 1      0.0000
    24 H1C      3.5383   0.4054  -2.5680   H         1 1      0.0000
    25 H1B      4.4292  -0.8824  -1.7609   H         1 1      0.0000
    26 H10A    -0.6782   0.6297   2.2823   H         1 1      0.0000
    27 H10B    -0.1440  -0.9146   2.9695   H         1 1      0.0000
    28 H9B     -1.7527  -2.0859   1.4160   H         1 1      0.0000
    29 H5      -4.5654   1.6370  -2.0826   H         1 1      0.0000
    30 H3      -1.7471  -1.3658  -0.9534   H         1 1      0.0000
    31 H12B     1.6404   1.1283   1.6652   H         1 1      0.0000
    32 C15      4.2124   2.1972   0.3745   C.3       1 1      0.0000
    33 H15A     5.1887   2.5742   0.7033   H         1 1      0.0000
    34 H15C     3.4467   2.6432   1.0211   H         1 1      0.0000
    35 OH       0.7366  -1.9476   0.6955   O.3       1 1      0.0000
    36 OH1     -0.0840  -2.3478   0.3151   H         1 1      0.0000
    37 H22      0.1317  -0.0751   0.0543   H         1 1      0.0000
    38 C16      3.9695   2.6297  -1.0530   C.3       1 1      0.0000
    39 H16C     2.9966   2.2875  -1.3994   H         1 1      0.0000
    40 H16A     3.9971   3.7141  -1.1374   H         1 1      0.0000
    41 H16B     4.7288   2.2188  -1.7150   H         1 1      0.0000
@<TRIPOS>BOND
     1     1     2   ar
     2     1     6   ar
     3     1    29    1
     4     2     3   ar
     5     2     7    1
     6     3     4   ar
     7     3    30    1
     8     4     5   ar
     9     4     8    1
    10     5     6   ar
    11     5     9    1
    12     6    10    1
    13     8    11    1
    14     8    12    1
    15     8    28    1
    16    11    13    1
    17    11    26    1
    18    11    27    1
    19    13    14    1
    20    14    15    1
    21    14    16    1
    22    14    31    1
    23    16    17    1
    24    16    20    2
    25    17    18    1
    26    17    19    1
    27    17    32    1
    28    20    21    1
    29    20    22    1
    30    22    23    1
    31    22    24    1
    32    22    25    1
    33    32    33    1
    34    32    34    1
    35    13    35    1
    36    35    36    1
    37    13    37    1
    38    32    38    1
    39    38    39    1
    40    38    40    1
    41    38    41    1
@<TRIPOS>SUBSTRUCTURE
     1 1           1 GROUP             0 ****  ****    0  
@<TRIPOS>MOLECULE
Molecule Name_00001_00146
    41    41     1     0     0
SMALL
NO_CHARGES
****
Generated from the CSD

@<TRIPOS>ATOM
     1 C5      -4.0752   1.0069  -1.2702   C.ar      1 1      0.0000
     2 C4      -3.2091  -0.0144  -1.5963   C.ar      1 1      0.0000
     3 C3      -2.4701  -0.6420  -0.6074   C.ar      1 1      0.0000
     4 C8      -2.5879  -0.2574   0.7194   C.ar      1 1      0.0000
     5 C7      -3.4620   0.7721   1.0327   C.ar      1 1      0.0000
     6 C6      -4.2015   1.4003   0.0445   C.ar      1 1      0.0000
     7 H4      -3.1060  -0.3274  -2.6300   H         1 1      0.0000
     8 C9      -1.7797  -0.9396   1.7966   C.3       1 1      0.0000
     9 H7      -3.5681   1.0895   2.0648   H         1 1      0.0000
    10 H6      -4.8819   2.2041   0.3060   H         1 1      0.0000
    11 C10     -0.3983  -0.3186   1.9944   C.3       1 1      0.0000
    12 H9A     -2.3327  -0.8887   2.7426   H         1 1      0.0000
    13 C11      0.5802  -0.5299   0.8503   C.3       1 1      0.0000
    14 C12      1.9244   0.1367   1.1213   C.3       1 1      0.0000
    15 H12A     2.3884  -0.3348   1.9964   H         1 1      0.0000
    16 C13      2.8660   0.0429  -0.0406   C.2       1 1      0.0000
    17 C14      4.2325   0.6366   0.1266   C.3       1 1      0.0000
    18 H14B     4.9259   0.1197  -0.5483   H         1 1      0.0000
    19 H14A     4.5784   0.4632   1.1529   H         1 1      0.0000
    20 N        2.5027  -0.5568  -1.1568   N.pl3     1 1      0.0000
    21 HN       1.5902  -1.0123  -1.1515   H         1 1      0.0000
    22 C        3.3205  -0.7525  -2.3450   C.3       1 1      0.0000
    23 H1A      2.9258  -1.5616  -2.9559   H         1 1      0.0000
    24 H1C      3.3414   0.1506  -2.9514   H         1 1      0.0000
    25 H1B      4.3441  -1.0012  -2.0732   H         1 1      0.0000
    26 H10A    -0.5236   0.7605   2.1468   H         1 1      0.0000
    27 H10B     0.0418  -0.7373   2.9078   H         1 1      0.0000
    28 H9B     -1.6611  -1.9985   1.5359   H         1 1      0.0000
    29 H5      -4.6546   1.4986  -2.0447   H         1 1      0.0000
    30 H3      -1.7905  -1.4445  -0.8743   H         1 1      0.0000
    31 H12B     1.7575   1.1941   1.3613   H         1 1      0.0000
    32 C15      4.2842   2.1246  -0.1667   C.3       1 1      0.0000
    33 H15A     3.8877   2.3070  -1.1731   H         1 1      0.0000
    34 H15C     5.3293   2.4579  -0.1535   H         1 1      0.0000
    35 OH       0.7824  -1.9336   0.6641   O.3       1 1      0.0000
    36 OH1     -0.0691  -2.3569   0.3926   H         1 1      0.0000
    37 H22      0.1507  -0.1045  -0.0699   H         1 1      0.0000
    38 C16      3.4923   2.9361   0.8323   C.3       1 1      0.0000
    39 H16C     3.5782   2.5102   1.8298   H         1 1      0.0000
    40 H16A     3.8539   3.9616   0.8694   H         1 1      0.0000
    41 H16B     2.4384   2.9578   0.5627   H         1 1      0.0000
@<TRIPOS>BOND
     1     1     2   ar
     2     1     6   ar
     3     1    29    1
     4     2     3   ar
     5     2     7    1
     6     3     4   ar
     7     3    30    1
     8     4     5   ar
     9     4     8    1
    10     5     6   ar
    11     5     9    1
    12     6    10    1
    13     8    11    1
    14     8    12    1
    15     8    28    1
    16    11    13    1
    17    11    26    1
    18    11    27    1
    19    13    14    1
    20    14    15    1
    21    14    16    1
    22    14    31    1
    23    16    17    1
    24    16    20    2
    25    17    18    1
    26    17    19    1
    27    17    32    1
    28    20    21    1
    29    20    22    1
    30    22    23    1
    31    22    24    1
    32    22    25    1
    33    32    33    1
    34    32    34    1
    35    13    35    1
    36    35    36    1
    37    13    37    1
    38    32    38    1
    39    38    39    1
    40    38    40    1
    41    38    41    1
@<TRIPOS>SUBSTRUCTURE
     1 1           1 GROUP             0 ****  ****    0  
@<TRIPOS>MOLECULE
Molecule Name_00001_00147
    41    41     1     0     0
SMALL
NO_CHARGES
****
Generated from the CSD

@<TRIPOS>ATOM
     1 C5      -4.8064   0.4538  -1.1521   C.ar      1 1      0.0000
     2 C4      -4.5921   1.2761  -0.0671   C.ar      1 1      0.0000
     3 C3      -3.4300   1.1574   0.6769   C.ar      1 1      0.0000
     4 C8      -2.4675   0.2162   0.3454   C.ar      1 1      0.0000
     5 C7      -2.6969  -0.6051  -0.7478   C.ar      1 1      0.0000
     6 C6      -3.8587  -0.4871  -1.4924   C.ar      1 1      0.0000
     7 H4      -5.3355   2.0181   0.2049   H         1 1      0.0000
     8 C9      -1.2024   0.0850   1.1585   C.3       1 1      0.0000
     9 H7      -1.9571  -1.3493  -1.0234   H         1 1      0.0000
    10 H6      -4.0231  -1.1370  -2.3455   H         1 1      0.0000
    11 C10     -0.2657  -1.0042   0.6395   C.3       1 1      0.0000
    12 H9A     -0.6724   1.0454   1.1499   H         1 1      0.0000
    13 C11      1.0254  -1.1796   1.4226   C.3       1 1      0.0000
    14 C12      1.9003   0.0677   1.3633   C.3       1 1      0.0000
    15 H12A     2.6999  -0.0195   2.1092   H         1 1      0.0000
    16 C13      2.5135   0.2855   0.0134   C.2       1 1      0.0000
    17 C14      3.3694   1.5029  -0.1694   C.3       1 1      0.0000
    18 H14B     2.9040   2.3433   0.3603   H         1 1      0.0000
    19 H14A     3.4056   1.7621  -1.2345   H         1 1      0.0000
    20 N        2.3162  -0.5761  -0.9644   N.pl3     1 1      0.0000
    21 HN       1.7976  -1.4216  -0.7270   H         1 1      0.0000
    22 C        2.8750  -0.5111  -2.3070   C.3       1 1      0.0000
    23 H1A      3.0880  -1.5090  -2.6847   H         1 1      0.0000
    24 H1C      2.1785  -0.0314  -2.9914   H         1 1      0.0000
    25 H1B      3.8018   0.0586  -2.3129   H         1 1      0.0000
    26 H10A    -0.8073  -1.9582   0.6484   H         1 1      0.0000
    27 H10B    -0.0100  -0.7735  -0.4020   H         1 1      0.0000
    28 H9B     -1.4694  -0.1396   2.1986   H         1 1      0.0000
    29 H5      -5.7166   0.5467  -1.7353   H         1 1      0.0000
    30 H3      -3.2709   1.8091   1.5297   H         1 1      0.0000
    31 H12B     1.2935   0.9432   1.6253   H         1 1      0.0000
    32 C15      4.7865   1.3271   0.3440   C.3       1 1      0.0000
    33 H15A     5.2575   0.4865  -0.1803   H         1 1      0.0000
    34 H15C     4.7541   1.0790   1.4121   H         1 1      0.0000
    35 OH       0.7069  -1.4640   2.7877   O.3       1 1      0.0000
    36 OH1      0.1591  -2.2860   2.8348   H         1 1      0.0000
    37 H22      1.5860  -2.0283   1.0011   H         1 1      0.0000
    38 C16      5.6278   2.5671   0.1482   C.3       1 1      0.0000
    39 H16C     5.1952   3.4141   0.6766   H         1 1      0.0000
    40 H16A     6.6367   2.4121   0.5247   H         1 1      0.0000
    41 H16B     5.6955   2.8245  -0.9068   H         1 1      0.0000
@<TRIPOS>BOND
     1     1     2   ar
     2     1     6   ar
     3     1    29    1
     4     2     3   ar
     5     2     7    1
     6     3     4   ar
     7     3    30    1
     8     4     5   ar
     9     4     8    1
    10     5     6   ar
    11     5     9    1
    12     6    10    1
    13     8    11    1
    14     8    12    1
    15     8    28    1
    16    11    13    1
    17    11    26    1
    18    11    27    1
    19    13    14    1
    20    14    15    1
    21    14    16    1
    22    14    31    1
    23    16    17    1
    24    16    20    2
    25    17    18    1
    26    17    19    1
    27    17    32    1
    28    20    21    1
    29    20    22    1
    30    22    23    1
    31    22    24    1
    32    22    25    1
    33    32    33    1
    34    32    34    1
    35    13    35    1
    36    35    36    1
    37    13    37    1
    38    32    38    1
    39    38    39    1
    40    38    40    1
    41    38    41    1
@<TRIPOS>SUBSTRUCTURE
     1 1           1 GROUP             0 ****  ****    0  
@<TRIPOS>MOLECULE
Molecule Name_00001_00148
    41    41     1     0     0
SMALL
NO_CHARGES
****
Generated from the CSD

@<TRIPOS>ATOM
     1 C5      -4.5055   1.0449  -0.9058   C.ar      1 1      0.0000
     2 C4      -4.2275   1.5034   0.3638   C.ar      1 1      0.0000
     3 C3      -3.0899   1.0721   1.0254   C.ar      1 1      0.0000
     4 C8      -2.2157   0.1783   0.4263   C.ar      1 1      0.0000
     5 C7      -2.5085  -0.2754  -0.8506   C.ar      1 1      0.0000
     6 C6      -3.6459   0.1552  -1.5131   C.ar      1 1      0.0000
     7 H4      -4.9015   2.2036   0.8461   H         1 1      0.0000
     8 C9      -0.9774  -0.2940   1.1492   C.3       1 1      0.0000
     9 H7      -1.8383  -0.9765  -1.3369   H         1 1      0.0000
    10 H6      -3.8607  -0.2088  -2.5124   H         1 1      0.0000
    11 C10     -0.1406  -1.2738   0.3288   C.3       1 1      0.0000
    12 H9A     -0.3601   0.5763   1.4039   H         1 1      0.0000
    13 C11      1.1198  -1.7821   1.0099   C.3       1 1      0.0000
    14 C12      2.1077  -0.6555   1.2918   C.3       1 1      0.0000
    15 H12A     2.8874  -1.0237   1.9699   H         1 1      0.0000
    16 C13      2.7535  -0.1224   0.0490   C.2       1 1      0.0000
    17 C14      3.7210   1.0124   0.2043   C.3       1 1      0.0000
    18 H14B     4.4113   1.0056  -0.6482   H         1 1      0.0000
    19 H14A     4.3156   0.8582   1.1130   H         1 1      0.0000
    20 N        2.4876  -0.6501  -1.1292   N.pl3     1 1      0.0000
    21 HN       1.8899  -1.4765  -1.1323   H         1 1      0.0000
    22 C        3.0648  -0.2600  -2.4073   C.3       1 1      0.0000
    23 H1A      2.8511  -1.0053  -3.1705   H         1 1      0.0000
    24 H1C      2.6566   0.6921  -2.7399   H         1 1      0.0000
    25 H1B      4.1449  -0.1560  -2.3282   H         1 1      0.0000
    26 H10A    -0.7688  -2.1369   0.0763   H         1 1      0.0000
    27 H10B     0.1470  -0.7826  -0.6090   H         1 1      0.0000
    28 H9B     -1.2756  -0.7778   2.0875   H         1 1      0.0000
    29 H5      -5.3966   1.3828  -1.4246   H         1 1      0.0000
    30 H3      -2.8801   1.4384   2.0250   H         1 1      0.0000
    31 H12B     1.5823   0.1623   1.8002   H         1 1      0.0000
    32 C15      3.0503   2.3716   0.2783   C.3       1 1      0.0000
    33 H15A     2.3566   2.3847   1.1280   H         1 1      0.0000
    34 H15C     2.4639   2.5338  -0.6345   H         1 1      0.0000
    35 OH       0.7611  -2.4103   2.2438   O.3       1 1      0.0000
    36 OH1      0.1386  -3.1577   2.0653   H         1 1      0.0000
    37 H22      1.6036  -2.5250   0.3569   H         1 1      0.0000
    38 C16      4.0463   3.4973   0.4346   C.3       1 1      0.0000
    39 H16C     4.7354   3.5222  -0.4071   H         1 1      0.0000
    40 H16A     3.5380   4.4579   0.4849   H         1 1      0.0000
    41 H16B     4.6283   3.3737   1.3455   H         1 1      0.0000
@<TRIPOS>BOND
     1     1     2   ar
     2     1     6   ar
     3     1    29    1
     4     2     3   ar
     5     2     7    1
     6     3     4   ar
     7     3    30    1
     8     4     5   ar
     9     4     8    1
    10     5     6   ar
    11     5     9    1
    12     6    10    1
    13     8    11    1
    14     8    12    1
    15     8    28    1
    16    11    13    1
    17    11    26    1
    18    11    27    1
    19    13    14    1
    20    14    15    1
    21    14    16    1
    22    14    31    1
    23    16    17    1
    24    16    20    2
    25    17    18    1
    26    17    19    1
    27    17    32    1
    28    20    21    1
    29    20    22    1
    30    22    23    1
    31    22    24    1
    32    22    25    1
    33    32    33    1
    34    32    34    1
    35    13    35    1
    36    35    36    1
    37    13    37    1
    38    32    38    1
    39    38    39    1
    40    38    40    1
    41    38    41    1
@<TRIPOS>SUBSTRUCTURE
     1 1           1 GROUP             0 ****  ****    0  
@<TRIPOS>MOLECULE
Molecule Name_00001_00149
    41    41     1     0     0
SMALL
NO_CHARGES
****
Generated from the CSD

@<TRIPOS>ATOM
     1 C5      -5.6067   0.4268  -0.3506   C.ar      1 1      0.0000
     2 C4      -5.3415  -0.0143   0.9279   C.ar      1 1      0.0000
     3 C3      -4.0347  -0.2318   1.3315   C.ar      1 1      0.0000
     4 C8      -2.9769  -0.0104   0.4631   C.ar      1 1      0.0000
     5 C7      -3.2586   0.4321  -0.8203   C.ar      1 1      0.0000
     6 C6      -4.5650   0.6499  -1.2249   C.ar      1 1      0.0000
     7 H4      -6.1583  -0.1917   1.6197   H         1 1      0.0000
     8 C9      -1.5528  -0.2506   0.9024   C.3       1 1      0.0000
     9 H7      -2.4454   0.6100  -1.5162   H         1 1      0.0000
    10 H6      -4.7689   0.9968  -2.2325   H         1 1      0.0000
    11 C10     -0.5289   0.0486  -0.1908   C.3       1 1      0.0000
    12 H9A     -1.3382   0.3793   1.7745   H         1 1      0.0000
    13 C11      0.9233  -0.1766   0.1983   C.3       1 1      0.0000
    14 C12      1.8744   0.1270  -0.9541   C.3       1 1      0.0000
    15 H12A     1.8053   1.1928  -1.2046   H         1 1      0.0000
    16 C13      3.3000  -0.2085  -0.6367   C.2       1 1      0.0000
    17 C14      4.2451   0.9328  -0.4089   C.3       1 1      0.0000
    18 H14B     4.0127   1.7307  -1.1250   H         1 1      0.0000
    19 H14A     5.2704   0.5978  -0.6078   H         1 1      0.0000
    20 N        3.6938  -1.4631  -0.5460   N.pl3     1 1      0.0000
    21 HN       2.9670  -2.1742  -0.6247   H         1 1      0.0000
    22 C        5.0302  -1.9332  -0.2112   C.3       1 1      0.0000
    23 H1A      4.9816  -2.8527   0.3684   H         1 1      0.0000
    24 H1C      5.6061  -2.1312  -1.1128   H         1 1      0.0000
    25 H1B      5.5657  -1.1903   0.3760   H         1 1      0.0000
    26 H10A    -0.7558  -0.5830  -1.0585   H         1 1      0.0000
    27 H10B    -0.6464   1.0952  -0.4980   H         1 1      0.0000
    28 H9B     -1.4478  -1.2975   1.2129   H         1 1      0.0000
    29 H5      -6.6304   0.5975  -0.6671   H         1 1      0.0000
    30 H3      -3.8362  -0.5796   2.3399   H         1 1      0.0000
    31 H12B     1.5611  -0.4443  -1.8366   H         1 1      0.0000
    32 C15      4.1761   1.5026   0.9959   C.3       1 1      0.0000
    33 H15A     4.3625   0.6994   1.7194   H         1 1      0.0000
    34 H15C     3.1657   1.8890   1.1783   H         1 1      0.0000
    35 OH       1.2448   0.6689   1.3063   O.3       1 1      0.0000
    36 OH1      0.6496   0.4571   2.0671   H         1 1      0.0000
    37 H22      1.0532  -1.2275   0.4999   H         1 1      0.0000
    38 C16      5.1786   2.6114   1.2174   C.3       1 1      0.0000
    39 H16C     5.0037   3.4333   0.5262   H         1 1      0.0000
    40 H16A     5.1064   2.9999   2.2311   H         1 1      0.0000
    41 H16B     6.1934   2.2501   1.0644   H         1 1      0.0000
@<TRIPOS>BOND
     1     1     2   ar
     2     1     6   ar
     3     1    29    1
     4     2     3   ar
     5     2     7    1
     6     3     4   ar
     7     3    30    1
     8     4     5   ar
     9     4     8    1
    10     5     6   ar
    11     5     9    1
    12     6    10    1
    13     8    11    1
    14     8    12    1
    15     8    28    1
    16    11    13    1
    17    11    26    1
    18    11    27    1
    19    13    14    1
    20    14    15    1
    21    14    16    1
    22    14    31    1
    23    16    17    1
    24    16    20    2
    25    17    18    1
    26    17    19    1
    27    17    32    1
    28    20    21    1
    29    20    22    1
    30    22    23    1
    31    22    24    1
    32    22    25    1
    33    32    33    1
    34    32    34    1
    35    13    35    1
    36    35    36    1
    37    13    37    1
    38    32    38    1
    39    38    39    1
    40    38    40    1
    41    38    41    1
@<TRIPOS>SUBSTRUCTURE
     1 1           1 GROUP             0 ****  ****    0  
@<TRIPOS>MOLECULE
Molecule Name_00001_00150
    41    41     1     0     0
SMALL
NO_CHARGES
****
Generated from the CSD

@<TRIPOS>ATOM
     1 C5      -5.5112   0.2381  -0.1713   C.ar      1 1      0.0000
     2 C4      -4.9416   0.2696   1.0833   C.ar      1 1      0.0000
     3 C3      -3.5673   0.3704   1.2209   C.ar      1 1      0.0000
     4 C8      -2.7453   0.4418   0.1068   C.ar      1 1      0.0000
     5 C7      -3.3318   0.4078  -1.1490   C.ar      1 1      0.0000
     6 C6      -4.7060   0.3070  -1.2877   C.ar      1 1      0.0000
     7 H4      -5.5714   0.2152   1.9651   H         1 1      0.0000
     8 C9      -1.2470   0.5484   0.2572   C.3       1 1      0.0000
     9 H7      -2.7064   0.4609  -2.0341   H         1 1      0.0000
    10 H6      -5.1498   0.2823  -2.2775   H         1 1      0.0000
    11 C10     -0.5575  -0.8095   0.3750   C.3       1 1      0.0000
    12 H9A     -0.8391   1.0817  -0.6104   H         1 1      0.0000
    13 C11      0.9541  -0.7607   0.5288   C.3       1 1      0.0000
    14 C12      1.6297  -0.1391  -0.6885   C.3       1 1      0.0000
    15 H12A     1.3153   0.9081  -0.7773   H         1 1      0.0000
    16 C13      3.1255  -0.1954  -0.6167   C.2       1 1      0.0000
    17 C14      3.8548   1.0898  -0.3632   C.3       1 1      0.0000
    18 H14B     3.3595   1.8922  -0.9238   H         1 1      0.0000
    19 H14A     4.8800   1.0043  -0.7436   H         1 1      0.0000
    20 N        3.7651  -1.3396  -0.7548   N.pl3     1 1      0.0000
    21 HN       3.1874  -2.1765  -0.8320   H         1 1      0.0000
    22 C        5.2035  -1.5474  -0.6725   C.3       1 1      0.0000
    23 H1A      5.4286  -2.5131  -0.2246   H         1 1      0.0000
    24 H1C      5.6541  -1.5199  -1.6624   H         1 1      0.0000
    25 H1B      5.6717  -0.7751  -0.0660   H         1 1      0.0000
    26 H10A    -0.9761  -1.3349   1.2422   H         1 1      0.0000
    27 H10B    -0.7954  -1.3973  -0.5201   H         1 1      0.0000
    28 H9B     -1.0203   1.1426   1.1510   H         1 1      0.0000
    29 H5      -6.5879   0.1594  -0.2795   H         1 1      0.0000
    30 H3      -3.1284   0.3938   2.2129   H         1 1      0.0000
    31 H12B     1.2955  -0.6656  -1.5910   H         1 1      0.0000
    32 C15      3.9034   1.4771   1.1033   C.3       1 1      0.0000
    33 H15A     4.3564   0.6590   1.6766   H         1 1      0.0000
    34 H15C     2.8800   1.6175   1.4725   H         1 1      0.0000
    35 OH       1.2792   0.0095   1.6894   O.3       1 1      0.0000
    36 OH1      0.8633  -0.4024   2.4865   H         1 1      0.0000
    37 H22      1.3326  -1.7861   0.6616   H         1 1      0.0000
    38 C16      4.6936   2.7436   1.3383   C.3       1 1      0.0000
    39 H16C     4.2533   3.5789   0.7977   H         1 1      0.0000
    40 H16A     4.7115   2.9963   2.3964   H         1 1      0.0000
    41 H16B     5.7211   2.6254   1.0007   H         1 1      0.0000
@<TRIPOS>BOND
     1     1     2   ar
     2     1     6   ar
     3     1    29    1
     4     2     3   ar
     5     2     7    1
     6     3     4   ar
     7     3    30    1
     8     4     5   ar
     9     4     8    1
    10     5     6   ar
    11     5     9    1
    12     6    10    1
    13     8    11    1
    14     8    12    1
    15     8    28    1
    16    11    13    1
    17    11    26    1
    18    11    27    1
    19    13    14    1
    20    14    15    1
    21    14    16    1
    22    14    31    1
    23    16    17    1
    24    16    20    2
    25    17    18    1
    26    17    19    1
    27    17    32    1
    28    20    21    1
    29    20    22    1
    30    22    23    1
    31    22    24    1
    32    22    25    1
    33    32    33    1
    34    32    34    1
    35    13    35    1
    36    35    36    1
    37    13    37    1
    38    32    38    1
    39    38    39    1
    40    38    40    1
    41    38    41    1
@<TRIPOS>SUBSTRUCTURE
     1 1           1 GROUP             0 ****  ****    0  
@<TRIPOS>MOLECULE
Molecule Name_00001_00151
    41    41     1     0     0
SMALL
NO_CHARGES
****
Generated from the CSD

@<TRIPOS>ATOM
     1 C5      -5.6482   0.7759   0.0327   C.ar      1 1      0.0000
     2 C4      -4.7070   1.0754   0.9939   C.ar      1 1      0.0000
     3 C3      -3.4283   0.5514   0.9023   C.ar      1 1      0.0000
     4 C8      -3.0742  -0.2774  -0.1511   C.ar      1 1      0.0000
     5 C7      -4.0314  -0.5712  -1.1100   C.ar      1 1      0.0000
     6 C6      -5.3104  -0.0477  -1.0194   C.ar      1 1      0.0000
     7 H4      -4.9683   1.7231   1.8242   H         1 1      0.0000
     8 C9      -1.6812  -0.8510  -0.2489   C.3       1 1      0.0000
     9 H7      -3.7754  -1.2191  -1.9418   H         1 1      0.0000
    10 H6      -6.0481  -0.2866  -1.7783   H         1 1      0.0000
    11 C10     -0.6062   0.0874   0.2960   C.3       1 1      0.0000
    12 H9A     -1.6454  -1.7958   0.3074   H         1 1      0.0000
    13 C11      0.8191  -0.4336   0.2060   C.3       1 1      0.0000
    14 C12      1.8277   0.6964   0.0317   C.3       1 1      0.0000
    15 H12A     1.8056   1.3371   0.9219   H         1 1      0.0000
    16 C13      3.2263   0.2016  -0.1791   C.2       1 1      0.0000
    17 C14      4.3058   1.2286  -0.3457   C.3       1 1      0.0000
    18 H14B     3.9189   2.0493  -0.9623   H         1 1      0.0000
    19 H14A     5.1506   0.7806  -0.8830   H         1 1      0.0000
    20 N        3.4896  -1.0898  -0.1978   N.pl3     1 1      0.0000
    21 HN       2.7123  -1.7150   0.0149   H         1 1      0.0000
    22 C        4.7976  -1.7087  -0.3558   C.3       1 1      0.0000
    23 H1A      4.8652  -2.6226   0.2307   H         1 1      0.0000
    24 H1C      4.9812  -1.9608  -1.3982   H         1 1      0.0000
    25 H1B      5.5862  -1.0355  -0.0265   H         1 1      0.0000
    26 H10A    -0.6631   1.0343  -0.2550   H         1 1      0.0000
    27 H10B    -0.8318   0.2980   1.3487   H         1 1      0.0000
    28 H9B     -1.4609  -1.0740  -1.3001   H         1 1      0.0000
    29 H5      -6.6500   1.1865   0.1040   H         1 1      0.0000
    30 H3      -2.6946   0.7926   1.6643   H         1 1      0.0000
    31 H12B     1.5325   1.3100  -0.8284   H         1 1      0.0000
    32 C15      4.8043   1.7992   0.9691   C.3       1 1      0.0000
    33 H15A     5.1910   0.9831   1.5919   H         1 1      0.0000
    34 H15C     3.9637   2.2583   1.5039   H         1 1      0.0000
    35 OH       1.1268  -1.1560   1.4016   O.3       1 1      0.0000
    36 OH1      0.4904  -1.9054   1.5079   H         1 1      0.0000
    37 H22      0.8961  -1.1158  -0.6547   H         1 1      0.0000
    38 C16      5.8909   2.8311   0.7738   C.3       1 1      0.0000
    39 H16C     5.5281   3.6649   0.1764   H         1 1      0.0000
    40 H16A     6.2283   3.2218   1.7315   H         1 1      0.0000
    41 H16B     6.7483   2.3966   0.2640   H         1 1      0.0000
@<TRIPOS>BOND
     1     1     2   ar
     2     1     6   ar
     3     1    29    1
     4     2     3   ar
     5     2     7    1
     6     3     4   ar
     7     3    30    1
     8     4     5   ar
     9     4     8    1
    10     5     6   ar
    11     5     9    1
    12     6    10    1
    13     8    11    1
    14     8    12    1
    15     8    28    1
    16    11    13    1
    17    11    26    1
    18    11    27    1
    19    13    14    1
    20    14    15    1
    21    14    16    1
    22    14    31    1
    23    16    17    1
    24    16    20    2
    25    17    18    1
    26    17    19    1
    27    17    32    1
    28    20    21    1
    29    20    22    1
    30    22    23    1
    31    22    24    1
    32    22    25    1
    33    32    33    1
    34    32    34    1
    35    13    35    1
    36    35    36    1
    37    13    37    1
    38    32    38    1
    39    38    39    1
    40    38    40    1
    41    38    41    1
@<TRIPOS>SUBSTRUCTURE
     1 1           1 GROUP             0 ****  ****    0  
@<TRIPOS>MOLECULE
Molecule Name_00001_00152
    41    41     1     0     0
SMALL
NO_CHARGES
****
Generated from the CSD

@<TRIPOS>ATOM
     1 C5      -5.6050   0.8128   0.1279   C.ar      1 1      0.0000
     2 C4      -4.7495   0.6597   1.1975   C.ar      1 1      0.0000
     3 C3      -3.4659   0.1796   0.9984   C.ar      1 1      0.0000
     4 C8      -3.0210  -0.1526  -0.2719   C.ar      1 1      0.0000
     5 C7      -3.8926   0.0053  -1.3385   C.ar      1 1      0.0000
     6 C6      -5.1764   0.4853  -1.1404   C.ar      1 1      0.0000
     7 H4      -5.0825   0.9159   2.1979   H         1 1      0.0000
     8 C9      -1.6227  -0.6790  -0.4881   C.3       1 1      0.0000
     9 H7      -3.5648  -0.2504  -2.3407   H         1 1      0.0000
    10 H6      -5.8464   0.6038  -1.9856   H         1 1      0.0000
    11 C10     -0.6010  -0.0830   0.4783   C.3       1 1      0.0000
    12 H9A     -1.6309  -1.7697  -0.3709   H         1 1      0.0000
    13 C11      0.8286  -0.5658   0.2934   C.3       1 1      0.0000
    14 C12      1.8444   0.5031   0.6812   C.3       1 1      0.0000
    15 H12A     1.7448   0.7206   1.7518   H         1 1      0.0000
    16 C13      3.2576   0.0948   0.3954   C.2       1 1      0.0000
    17 C14      4.3437   1.0644   0.7532   C.3       1 1      0.0000
    18 H14B     5.2763   0.5075   0.9064   H         1 1      0.0000
    19 H14A     4.0916   1.5552   1.7012   H         1 1      0.0000
    20 N        3.5260  -1.0819  -0.1344   N.pl3     1 1      0.0000
    21 HN       2.7357  -1.7141  -0.2607   H         1 1      0.0000
    22 C        4.8448  -1.6221  -0.4307   C.3       1 1      0.0000
    23 H1A      4.8056  -2.7052  -0.5252   H         1 1      0.0000
    24 H1C      5.2275  -1.2142  -1.3640   H         1 1      0.0000
    25 H1B      5.5500  -1.3761   0.3604   H         1 1      0.0000
    26 H10A    -0.6144   1.0081   0.3650   H         1 1      0.0000
    27 H10B    -0.9156  -0.3176   1.5027   H         1 1      0.0000
    28 H9B     -1.3134  -0.4561  -1.5167   H         1 1      0.0000
    29 H5      -6.6107   1.1892   0.2834   H         1 1      0.0000
    30 H3      -2.8002   0.0621   1.8471   H         1 1      0.0000
    31 H12B     1.6209   1.4255   0.1311   H         1 1      0.0000
    32 C15      4.5776   2.1264  -0.3052   C.3       1 1      0.0000
    33 H15A     3.6478   2.6861  -0.4649   H         1 1      0.0000
    34 H15C     4.8413   1.6390  -1.2519   H         1 1      0.0000
    35 OH       1.0365  -1.7258   1.1039   O.3       1 1      0.0000
    36 OH1      0.3960  -2.4318   0.8408   H         1 1      0.0000
    37 H22      0.9806  -0.8349  -0.7633   H         1 1      0.0000
    38 C16      5.6762   3.0902   0.0793   C.3       1 1      0.0000
    39 H16C     6.6178   2.5643   0.2233   H         1 1      0.0000
    40 H16A     5.8214   3.8390  -0.6966   H         1 1      0.0000
    41 H16B     5.4307   3.6053   1.0057   H         1 1      0.0000
@<TRIPOS>BOND
     1     1     2   ar
     2     1     6   ar
     3     1    29    1
     4     2     3   ar
     5     2     7    1
     6     3     4   ar
     7     3    30    1
     8     4     5   ar
     9     4     8    1
    10     5     6   ar
    11     5     9    1
    12     6    10    1
    13     8    11    1
    14     8    12    1
    15     8    28    1
    16    11    13    1
    17    11    26    1
    18    11    27    1
    19    13    14    1
    20    14    15    1
    21    14    16    1
    22    14    31    1
    23    16    17    1
    24    16    20    2
    25    17    18    1
    26    17    19    1
    27    17    32    1
    28    20    21    1
    29    20    22    1
    30    22    23    1
    31    22    24    1
    32    22    25    1
    33    32    33    1
    34    32    34    1
    35    13    35    1
    36    35    36    1
    37    13    37    1
    38    32    38    1
    39    38    39    1
    40    38    40    1
    41    38    41    1
@<TRIPOS>SUBSTRUCTURE
     1 1           1 GROUP             0 ****  ****    0  
@<TRIPOS>MOLECULE
Molecule Name_00001_00153
    41    41     1     0     0
SMALL
NO_CHARGES
****
Generated from the CSD

@<TRIPOS>ATOM
     1 C5      -4.7892   0.9828  -1.0444   C.ar      1 1      0.0000
     2 C4      -4.3061  -0.1944  -1.5737   C.ar      1 1      0.0000
     3 C3      -3.2520  -0.8515  -0.9613   C.ar      1 1      0.0000
     4 C8      -2.6683  -0.3409   0.1879   C.ar      1 1      0.0000
     5 C7      -3.1637   0.8447   0.7086   C.ar      1 1      0.0000
     6 C6      -4.2177   1.5025   0.0970   C.ar      1 1      0.0000
     7 H4      -4.7525  -0.6072  -2.4723   H         1 1      0.0000
     8 C9      -1.5172  -1.0558   0.8533   C.3       1 1      0.0000
     9 H7      -2.7201   1.2622   1.6065   H         1 1      0.0000
    10 H6      -4.5944   2.4292   0.5172   H         1 1      0.0000
    11 C10     -0.2284  -0.2361   0.8661   C.3       1 1      0.0000
    12 H9A     -1.7971  -1.2968   1.8863   H         1 1      0.0000
    13 C11      0.9646  -0.9093   1.5251   C.3       1 1      0.0000
    14 C12      2.2106  -0.0318   1.4774   C.3       1 1      0.0000
    15 H12A     2.9982  -0.4943   2.0851   H         1 1      0.0000
    16 C13      2.7255   0.1738   0.0852   C.2       1 1      0.0000
    17 C14      3.3828   1.4856  -0.2227   C.3       1 1      0.0000
    18 H14B     2.8216   2.2860   0.2750   H         1 1      0.0000
    19 H14A     3.3339   1.6692  -1.3029   H         1 1      0.0000
    20 N        2.6155  -0.7761  -0.8220   N.pl3     1 1      0.0000
    21 HN       2.2386  -1.6682  -0.5022   H         1 1      0.0000
    22 C        3.0995  -0.7287  -2.1941   C.3       1 1      0.0000
    23 H1A      3.4412  -1.7100  -2.5165   H         1 1      0.0000
    24 H1C      2.3104  -0.4059  -2.8700   H         1 1      0.0000
    25 H1B      3.9305  -0.0329  -2.2871   H         1 1      0.0000
    26 H10A     0.0390   0.0026  -0.1707   H         1 1      0.0000
    27 H10B    -0.4243   0.7088   1.3879   H         1 1      0.0000
    28 H9B     -1.3338  -2.0012   0.3280   H         1 1      0.0000
    29 H5      -5.6152   1.4978  -1.5238   H         1 1      0.0000
    30 H3      -2.8784  -1.7773  -1.3861   H         1 1      0.0000
    31 H12B     1.9778   0.9446   1.9199   H         1 1      0.0000
    32 C15      4.8314   1.5545   0.2243   C.3       1 1      0.0000
    33 H15A     5.3983   0.7550  -0.2683   H         1 1      0.0000
    34 H15C     4.8826   1.3826   1.3066   H         1 1      0.0000
    35 OH       0.6436  -1.1933   2.8897   O.3       1 1      0.0000
    36 OH1     -0.1472  -1.7859   2.9267   H         1 1      0.0000
    37 H22      1.1748  -1.8551   1.0021   H         1 1      0.0000
    38 C16      5.4704   2.8856  -0.0973   C.3       1 1      0.0000
    39 H16C     4.9406   3.6972   0.3970   H         1 1      0.0000
    40 H16A     6.5066   2.9060   0.2339   H         1 1      0.0000
    41 H16B     5.4533   3.0728  -1.1689   H         1 1      0.0000
@<TRIPOS>BOND
     1     1     2   ar
     2     1     6   ar
     3     1    29    1
     4     2     3   ar
     5     2     7    1
     6     3     4   ar
     7     3    30    1
     8     4     5   ar
     9     4     8    1
    10     5     6   ar
    11     5     9    1
    12     6    10    1
    13     8    11    1
    14     8    12    1
    15     8    28    1
    16    11    13    1
    17    11    26    1
    18    11    27    1
    19    13    14    1
    20    14    15    1
    21    14    16    1
    22    14    31    1
    23    16    17    1
    24    16    20    2
    25    17    18    1
    26    17    19    1
    27    17    32    1
    28    20    21    1
    29    20    22    1
    30    22    23    1
    31    22    24    1
    32    22    25    1
    33    32    33    1
    34    32    34    1
    35    13    35    1
    36    35    36    1
    37    13    37    1
    38    32    38    1
    39    38    39    1
    40    38    40    1
    41    38    41    1
@<TRIPOS>SUBSTRUCTURE
     1 1           1 GROUP             0 ****  ****    0  
@<TRIPOS>MOLECULE
Molecule Name_00001_00154
    41    41     1     0     0
SMALL
NO_CHARGES
****
Generated from the CSD

@<TRIPOS>ATOM
     1 C5      -5.0972  -0.0091  -1.1870   C.ar      1 1      0.0000
     2 C4      -4.4376  -1.2171  -1.1150   C.ar      1 1      0.0000
     3 C3      -3.2899  -1.3383  -0.3494   C.ar      1 1      0.0000
     4 C8      -2.7878  -0.2543   0.3542   C.ar      1 1      0.0000
     5 C7      -3.4609   0.9549   0.2716   C.ar      1 1      0.0000
     6 C6      -4.6086   1.0771  -0.4937   C.ar      1 1      0.0000
     7 H4      -4.8182  -2.0750  -1.6593   H         1 1      0.0000
     8 C9      -1.5349  -0.3861   1.1860   C.3       1 1      0.0000
     9 H7      -3.0838   1.8161   0.8133   H         1 1      0.0000
    10 H6      -5.1243   2.0302  -0.5476   H         1 1      0.0000
    11 C10     -0.3913   0.4981   0.6926   C.3       1 1      0.0000
    12 H9A     -1.7679  -0.1216   2.2248   H         1 1      0.0000
    13 C11      0.8965   0.4047   1.4951   C.3       1 1      0.0000
    14 C12      2.0047   1.2619   0.8937   C.3       1 1      0.0000
    15 H12A     2.6956   1.5650   1.6901   H         1 1      0.0000
    16 C13      2.7753   0.5509  -0.1769   C.2       1 1      0.0000
    17 C14      4.1720   1.0210  -0.4522   C.3       1 1      0.0000
    18 H14B     4.1909   2.1167  -0.4030   H         1 1      0.0000
    19 H14A     4.4567   0.7304  -1.4708   H         1 1      0.0000
    20 N        2.2423  -0.4602  -0.8335   N.pl3     1 1      0.0000
    21 HN       1.3234  -0.7719  -0.5194   H         1 1      0.0000
    22 C        2.8831  -1.2614  -1.8661   C.3       1 1      0.0000
    23 H1A      2.5526  -2.2965  -1.8118   H         1 1      0.0000
    24 H1C      2.6406  -0.8799  -2.8558   H         1 1      0.0000
    25 H1B      3.9650  -1.2446  -1.7529   H         1 1      0.0000
    26 H10A    -0.1703   0.2281  -0.3475   H         1 1      0.0000
    27 H10B    -0.7307   1.5412   0.7033   H         1 1      0.0000
    28 H9B     -1.2077  -1.4330   1.1735   H         1 1      0.0000
    29 H5      -5.9966   0.0862  -1.7865   H         1 1      0.0000
    30 H3      -2.7775  -2.2933  -0.2996   H         1 1      0.0000
    31 H12B     1.5630   2.1726   0.4707   H         1 1      0.0000
    32 C15      5.1971   0.4711   0.5223   C.3       1 1      0.0000
    33 H15A     5.1822  -0.6249   0.4798   H         1 1      0.0000
    34 H15C     4.9215   0.7699   1.5412   H         1 1      0.0000
    35 OH       0.6428   0.8388   2.8342   O.3       1 1      0.0000
    36 OH1     -0.0579   0.2701   3.2387   H         1 1      0.0000
    37 H22      1.2291  -0.6447   1.5155   H         1 1      0.0000
    38 C16      6.5956   0.9596   0.2234   C.3       1 1      0.0000
    39 H16C     6.6454   2.0450   0.2800   H         1 1      0.0000
    40 H16A     7.3079   0.5499   0.9365   H         1 1      0.0000
    41 H16B     6.9043   0.6578  -0.7753   H         1 1      0.0000
@<TRIPOS>BOND
     1     1     2   ar
     2     1     6   ar
     3     1    29    1
     4     2     3   ar
     5     2     7    1
     6     3     4   ar
     7     3    30    1
     8     4     5   ar
     9     4     8    1
    10     5     6   ar
    11     5     9    1
    12     6    10    1
    13     8    11    1
    14     8    12    1
    15     8    28    1
    16    11    13    1
    17    11    26    1
    18    11    27    1
    19    13    14    1
    20    14    15    1
    21    14    16    1
    22    14    31    1
    23    16    17    1
    24    16    20    2
    25    17    18    1
    26    17    19    1
    27    17    32    1
    28    20    21    1
    29    20    22    1
    30    22    23    1
    31    22    24    1
    32    22    25    1
    33    32    33    1
    34    32    34    1
    35    13    35    1
    36    35    36    1
    37    13    37    1
    38    32    38    1
    39    38    39    1
    40    38    40    1
    41    38    41    1
@<TRIPOS>SUBSTRUCTURE
     1 1           1 GROUP             0 ****  ****    0  
@<TRIPOS>MOLECULE
Molecule Name_00001_00155
    41    41     1     0     0
SMALL
NO_CHARGES
****
Generated from the CSD

@<TRIPOS>ATOM
     1 C5      -4.9441   0.8088  -1.0448   C.ar      1 1      0.0000
     2 C4      -4.3787  -0.3327  -1.5706   C.ar      1 1      0.0000
     3 C3      -3.2800  -0.9110  -0.9570   C.ar      1 1      0.0000
     4 C8      -2.7334  -0.3562   0.1900   C.ar      1 1      0.0000
     5 C7      -3.3116   0.7928   0.7072   C.ar      1 1      0.0000
     6 C6      -4.4103   1.3718   0.0943   C.ar      1 1      0.0000
     7 H4      -4.7952  -0.7794  -2.4674   H         1 1      0.0000
     8 C9      -1.5338  -0.9850   0.8567   C.3       1 1      0.0000
     9 H7      -2.8983   1.2440   1.6032   H         1 1      0.0000
    10 H6      -4.8518   2.2707   0.5118   H         1 1      0.0000
    11 C10     -0.3067  -0.0754   0.8655   C.3       1 1      0.0000
    12 H9A     -1.7951  -1.2418   1.8907   H         1 1      0.0000
    13 C11      0.9318  -0.6597   1.5257   C.3       1 1      0.0000
    14 C12      2.1266   0.2823   1.4271   C.3       1 1      0.0000
    15 H12A     2.7998   0.0971   2.2732   H         1 1      0.0000
    16 C13      2.8924   0.1203   0.1493   C.2       1 1      0.0000
    17 C14      4.3311   0.5420   0.1467   C.3       1 1      0.0000
    18 H14B     4.8578  -0.0079  -0.6431   H         1 1      0.0000
    19 H14A     4.7899   0.2665   1.1042   H         1 1      0.0000
    20 N        2.3183  -0.3915  -0.9211   N.pl3     1 1      0.0000
    21 HN       1.3654  -0.7359  -0.8048   H         1 1      0.0000
    22 C        2.9465  -0.6391  -2.2107   C.3       1 1      0.0000
    23 H1A      2.3366  -1.3076  -2.8148   H         1 1      0.0000
    24 H1C      3.0765   0.2906  -2.7608   H         1 1      0.0000
    25 H1B      3.9253  -1.0962  -2.0826   H         1 1      0.0000
    26 H10A    -0.0577   0.1782  -0.1723   H         1 1      0.0000
    27 H10B    -0.5691   0.8548   1.3843   H         1 1      0.0000
    28 H9B     -1.2838  -1.9167   0.3344   H         1 1      0.0000
    29 H5      -5.8050   1.2620  -1.5251   H         1 1      0.0000
    30 H3      -2.8417  -1.8093  -1.3791   H         1 1      0.0000
    31 H12B     1.7729   1.3180   1.5026   H         1 1      0.0000
    32 C15      4.5237   2.0296  -0.0826   C.3       1 1      0.0000
    33 H15A     3.9977   2.5858   0.7030   H         1 1      0.0000
    34 H15C     4.0760   2.3062  -1.0452   H         1 1      0.0000
    35 OH       0.6481  -0.9140   2.9044   O.3       1 1      0.0000
    36 OH1     -0.1096  -1.5456   2.9748   H         1 1      0.0000
    37 H22      1.1855  -1.6099   1.0308   H         1 1      0.0000
    38 C16      5.9813   2.4284  -0.0807   C.3       1 1      0.0000
    39 H16C     6.5248   1.9072  -0.8660   H         1 1      0.0000
    40 H16A     6.0887   3.4983  -0.2470   H         1 1      0.0000
    41 H16B     6.4465   2.1852   0.8722   H         1 1      0.0000
@<TRIPOS>BOND
     1     1     2   ar
     2     1     6   ar
     3     1    29    1
     4     2     3   ar
     5     2     7    1
     6     3     4   ar
     7     3    30    1
     8     4     5   ar
     9     4     8    1
    10     5     6   ar
    11     5     9    1
    12     6    10    1
    13     8    11    1
    14     8    12    1
    15     8    28    1
    16    11    13    1
    17    11    26    1
    18    11    27    1
    19    13    14    1
    20    14    15    1
    21    14    16    1
    22    14    31    1
    23    16    17    1
    24    16    20    2
    25    17    18    1
    26    17    19    1
    27    17    32    1
    28    20    21    1
    29    20    22    1
    30    22    23    1
    31    22    24    1
    32    22    25    1
    33    32    33    1
    34    32    34    1
    35    13    35    1
    36    35    36    1
    37    13    37    1
    38    32    38    1
    39    38    39    1
    40    38    40    1
    41    38    41    1
@<TRIPOS>SUBSTRUCTURE
     1 1           1 GROUP             0 ****  ****    0  
@<TRIPOS>MOLECULE
Molecule Name_00001_00156
    41    41     1     0     0
SMALL
NO_CHARGES
****
Generated from the CSD

@<TRIPOS>ATOM
     1 C5      -5.5139   0.1729   0.6157   C.ar      1 1      0.0000
     2 C4      -5.0562  -1.0104   0.0775   C.ar      1 1      0.0000
     3 C3      -3.7232  -1.1455  -0.2732   C.ar      1 1      0.0000
     4 C8      -2.8312  -0.1001  -0.0897   C.ar      1 1      0.0000
     5 C7      -3.3057   1.0848   0.4515   C.ar      1 1      0.0000
     6 C6      -4.6385   1.2208   0.8025   C.ar      1 1      0.0000
     7 H4      -5.7417  -1.8381  -0.0718   H         1 1      0.0000
     8 C9      -1.3790  -0.2466  -0.4751   C.3       1 1      0.0000
     9 H7      -2.6245   1.9158   0.6019   H         1 1      0.0000
    10 H6      -4.9942   2.1545   1.2255   H         1 1      0.0000
    11 C10     -0.5548   1.0091  -0.1977   C.3       1 1      0.0000
    12 H9A     -0.9462  -1.0875   0.0808   H         1 1      0.0000
    13 C11      0.9168   0.9167  -0.5675   C.3       1 1      0.0000
    14 C12      1.6407  -0.1528   0.2430   C.3       1 1      0.0000
    15 H12A     1.2118  -1.1341   0.0055   H         1 1      0.0000
    16 C13      3.1150  -0.1870  -0.0228   C.2       1 1      0.0000
    17 C14      3.9481   0.9170   0.5558   C.3       1 1      0.0000
    18 H14B     3.3982   1.8612   0.4586   H         1 1      0.0000
    19 H14A     4.8744   1.0122  -0.0238   H         1 1      0.0000
    20 N        3.6515  -1.1649  -0.7251   N.pl3     1 1      0.0000
    21 HN       3.0261  -1.9215  -1.0019   H         1 1      0.0000
    22 C        5.0638  -1.3444  -1.0288   C.3       1 1      0.0000
    23 H1A      5.3224  -2.4009  -1.0502   H         1 1      0.0000
    24 H1C      5.3066  -0.9165  -1.9993   H         1 1      0.0000
    25 H1B      5.6852  -0.8583  -0.2798   H         1 1      0.0000
    26 H10A    -0.9990   1.8434  -0.7546   H         1 1      0.0000
    27 H10B    -0.6288   1.2426   0.8716   H         1 1      0.0000
    28 H9B     -1.3166  -0.4857  -1.5439   H         1 1      0.0000
    29 H5      -6.5581   0.2790   0.8908   H         1 1      0.0000
    30 H3      -3.3727  -2.0809  -0.6967   H         1 1      0.0000
    31 H12B     1.4746   0.0342   1.3111   H         1 1      0.0000
    32 C15      4.3000   0.7055   2.0167   C.3       1 1      0.0000
    33 H15A     4.8488  -0.2386   2.1216   H         1 1      0.0000
    34 H15C     3.3754   0.6214   2.6011   H         1 1      0.0000
    35 OH       1.0283   0.6054  -1.9591   O.3       1 1      0.0000
    36 OH1      0.5811   1.3084  -2.4918   H         1 1      0.0000
    37 H22      1.3942   1.8907  -0.3788   H         1 1      0.0000
    38 C16      5.1393   1.8311   2.5756   C.3       1 1      0.0000
    39 H16C     4.6099   2.7789   2.5045   H         1 1      0.0000
    40 H16A     5.3760   1.6527   3.6224   H         1 1      0.0000
    41 H16B     6.0747   1.9235   2.0276   H         1 1      0.0000
@<TRIPOS>BOND
     1     1     2   ar
     2     1     6   ar
     3     1    29    1
     4     2     3   ar
     5     2     7    1
     6     3     4   ar
     7     3    30    1
     8     4     5   ar
     9     4     8    1
    10     5     6   ar
    11     5     9    1
    12     6    10    1
    13     8    11    1
    14     8    12    1
    15     8    28    1
    16    11    13    1
    17    11    26    1
    18    11    27    1
    19    13    14    1
    20    14    15    1
    21    14    16    1
    22    14    31    1
    23    16    17    1
    24    16    20    2
    25    17    18    1
    26    17    19    1
    27    17    32    1
    28    20    21    1
    29    20    22    1
    30    22    23    1
    31    22    24    1
    32    22    25    1
    33    32    33    1
    34    32    34    1
    35    13    35    1
    36    35    36    1
    37    13    37    1
    38    32    38    1
    39    38    39    1
    40    38    40    1
    41    38    41    1
@<TRIPOS>SUBSTRUCTURE
     1 1           1 GROUP             0 ****  ****    0  
@<TRIPOS>MOLECULE
Molecule Name_00001_00157
    41    41     1     0     0
SMALL
NO_CHARGES
****
Generated from the CSD

@<TRIPOS>ATOM
     1 C5      -5.5429   0.0483   0.3791   C.ar      1 1      0.0000
     2 C4      -5.0782  -0.6321  -0.7257   C.ar      1 1      0.0000
     3 C3      -3.7242  -0.6446  -1.0162   C.ar      1 1      0.0000
     4 C8      -2.8178   0.0218  -0.2060   C.ar      1 1      0.0000
     5 C7      -3.2994   0.7031   0.9013   C.ar      1 1      0.0000
     6 C6      -4.6533   0.7162   1.1926   C.ar      1 1      0.0000
     7 H4      -5.7748  -1.1591  -1.3694   H         1 1      0.0000
     8 C9      -1.3423   0.0106  -0.5248   C.3       1 1      0.0000
     9 H7      -2.6071   1.2325   1.5476   H         1 1      0.0000
    10 H6      -5.0144   1.2535   2.0633   H         1 1      0.0000
    11 C10     -0.5050   0.7981   0.4811   C.3       1 1      0.0000
    12 H9A     -0.9906  -1.0282  -0.5463   H         1 1      0.0000
    13 C11      0.9903   0.8200   0.2076   C.3       1 1      0.0000
    14 C12      1.6008  -0.5756   0.2734   C.3       1 1      0.0000
    15 H12A     1.1246  -1.2112  -0.4834   H         1 1      0.0000
    16 C13      3.0823  -0.5746   0.0481   C.2       1 1      0.0000
    17 C14      3.9531  -0.1054   1.1747   C.3       1 1      0.0000
    18 H14B     4.9141  -0.6315   1.1196   H         1 1      0.0000
    19 H14A     3.4837  -0.3725   2.1293   H         1 1      0.0000
    20 N        3.5913  -0.9896  -1.0948   N.pl3     1 1      0.0000
    21 HN       2.9335  -1.3773  -1.7709   H         1 1      0.0000
    22 C        5.0034  -1.0771  -1.4373   C.3       1 1      0.0000
    23 H1A      5.1536  -1.7385  -2.2880   H         1 1      0.0000
    24 H1C      5.3985  -0.0970  -1.6963   H         1 1      0.0000
    25 H1B      5.5809  -1.4644  -0.6006   H         1 1      0.0000
    26 H10A    -0.8682   1.8331   0.4973   H         1 1      0.0000
    27 H10B    -0.6681   0.3699   1.4778   H         1 1      0.0000
    28 H9B     -1.1909   0.4350  -1.5250   H         1 1      0.0000
    29 H5      -6.6036   0.0581   0.6071   H         1 1      0.0000
    30 H3      -3.3683  -1.1826  -1.8886   H         1 1      0.0000
    31 H12B     1.3895  -1.0127   1.2571   H         1 1      0.0000
    32 C15      4.2133   1.3895   1.1543   C.3       1 1      0.0000
    33 H15A     3.2569   1.9222   1.2252   H         1 1      0.0000
    34 H15C     4.6770   1.6610   0.1979   H         1 1      0.0000
    35 OH       1.2175   1.3700  -1.0930   O.3       1 1      0.0000
    36 OH1      0.8446   2.2850  -1.1346   H         1 1      0.0000
    37 H22      1.4811   1.4592   0.9578   H         1 1      0.0000
    38 C16      5.1124   1.8329   2.2851   C.3       1 1      0.0000
    39 H16C     6.0784   1.3358   2.2273   H         1 1      0.0000
    40 H16A     5.2810   2.9070   2.2452   H         1 1      0.0000
    41 H16B     4.6661   1.5954   3.2485   H         1 1      0.0000
@<TRIPOS>BOND
     1     1     2   ar
     2     1     6   ar
     3     1    29    1
     4     2     3   ar
     5     2     7    1
     6     3     4   ar
     7     3    30    1
     8     4     5   ar
     9     4     8    1
    10     5     6   ar
    11     5     9    1
    12     6    10    1
    13     8    11    1
    14     8    12    1
    15     8    28    1
    16    11    13    1
    17    11    26    1
    18    11    27    1
    19    13    14    1
    20    14    15    1
    21    14    16    1
    22    14    31    1
    23    16    17    1
    24    16    20    2
    25    17    18    1
    26    17    19    1
    27    17    32    1
    28    20    21    1
    29    20    22    1
    30    22    23    1
    31    22    24    1
    32    22    25    1
    33    32    33    1
    34    32    34    1
    35    13    35    1
    36    35    36    1
    37    13    37    1
    38    32    38    1
    39    38    39    1
    40    38    40    1
    41    38    41    1
@<TRIPOS>SUBSTRUCTURE
     1 1           1 GROUP             0 ****  ****    0  
@<TRIPOS>MOLECULE
Molecule Name_00001_00158
    41    41     1     0     0
SMALL
NO_CHARGES
****
Generated from the CSD

@<TRIPOS>ATOM
     1 C5      -5.5174   0.3925  -0.2316   C.ar      1 1      0.0000
     2 C4      -4.9060   1.4837   0.3472   C.ar      1 1      0.0000
     3 C3      -3.5398   1.4766   0.5736   C.ar      1 1      0.0000
     4 C8      -2.7676   0.3796   0.2238   C.ar      1 1      0.0000
     5 C7      -3.3960  -0.7115  -0.3564   C.ar      1 1      0.0000
     6 C6      -4.7622  -0.7054  -0.5833   C.ar      1 1      0.0000
     7 H4      -5.4964   2.3502   0.6261   H         1 1      0.0000
     8 C9      -1.2788   0.3710   0.4738   C.3       1 1      0.0000
     9 H7      -2.8103  -1.5809  -0.6363   H         1 1      0.0000
    10 H6      -5.2391  -1.5669  -1.0389   H         1 1      0.0000
    11 C10     -0.6018  -0.9214   0.0216   C.3       1 1      0.0000
    12 H9A     -0.8239   1.2167  -0.0565   H         1 1      0.0000
    13 C11      0.8998  -0.9839   0.2501   C.3       1 1      0.0000
    14 C12      1.6409   0.0859  -0.5443   C.3       1 1      0.0000
    15 H12A     1.3657   1.0748  -0.1572   H         1 1      0.0000
    16 C13      3.1302  -0.0669  -0.4789   C.2       1 1      0.0000
    17 C14      3.8166   0.3762   0.7781   C.3       1 1      0.0000
    18 H14B     4.7675  -0.1633   0.8690   H         1 1      0.0000
    19 H14A     3.1981   0.1047   1.6423   H         1 1      0.0000
    20 N        3.7998  -0.5889  -1.4871   N.pl3     1 1      0.0000
    21 HN       3.2447  -0.9474  -2.2641   H         1 1      0.0000
    22 C        5.2342  -0.8293  -1.5471   C.3       1 1      0.0000
    23 H1A      5.4707  -1.5609  -2.3170   H         1 1      0.0000
    24 H1C      5.7696   0.0895  -1.7771   H         1 1      0.0000
    25 H1B      5.6031  -1.2069  -0.5959   H         1 1      0.0000
    26 H10A    -1.0674  -1.7596   0.5545   H         1 1      0.0000
    27 H10B    -0.7946  -1.0566  -1.0498   H         1 1      0.0000
    28 H9B     -1.0971   0.5128   1.5463   H         1 1      0.0000
    29 H5      -6.5877   0.3978  -0.4094   H         1 1      0.0000
    30 H3      -3.0679   2.3403   1.0304   H         1 1      0.0000
    31 H12B     1.3226   0.0377  -1.5930   H         1 1      0.0000
    32 C15      4.0956   1.8673   0.8202   C.3       1 1      0.0000
    33 H15A     3.1486   2.4132   0.7277   H         1 1      0.0000
    34 H15C     4.7238   2.1401  -0.0367   H         1 1      0.0000
    35 OH       1.1665  -0.8018   1.6435   O.3       1 1      0.0000
    36 OH1      0.7077  -1.5074   2.1627   H         1 1      0.0000
    37 H22      1.2669  -1.9750  -0.0585   H         1 1      0.0000
    38 C16      4.7873   2.2878   2.0962   C.3       1 1      0.0000
    39 H16C     5.7420   1.7771   2.2037   H         1 1      0.0000
    40 H16A     4.9742   3.3596   2.0985   H         1 1      0.0000
    41 H16B     4.1755   2.0486   2.9635   H         1 1      0.0000
@<TRIPOS>BOND
     1     1     2   ar
     2     1     6   ar
     3     1    29    1
     4     2     3   ar
     5     2     7    1
     6     3     4   ar
     7     3    30    1
     8     4     5   ar
     9     4     8    1
    10     5     6   ar
    11     5     9    1
    12     6    10    1
    13     8    11    1
    14     8    12    1
    15     8    28    1
    16    11    13    1
    17    11    26    1
    18    11    27    1
    19    13    14    1
    20    14    15    1
    21    14    16    1
    22    14    31    1
    23    16    17    1
    24    16    20    2
    25    17    18    1
    26    17    19    1
    27    17    32    1
    28    20    21    1
    29    20    22    1
    30    22    23    1
    31    22    24    1
    32    22    25    1
    33    32    33    1
    34    32    34    1
    35    13    35    1
    36    35    36    1
    37    13    37    1
    38    32    38    1
    39    38    39    1
    40    38    40    1
    41    38    41    1
@<TRIPOS>SUBSTRUCTURE
     1 1           1 GROUP             0 ****  ****    0  
@<TRIPOS>MOLECULE
Molecule Name_00001_00159
    41    41     1     0     0
SMALL
NO_CHARGES
****
Generated from the CSD

@<TRIPOS>ATOM
     1 C5      -4.9139   0.5148  -1.2622   C.ar      1 1      0.0000
     2 C4      -4.4113  -0.7684  -1.2529   C.ar      1 1      0.0000
     3 C3      -3.3445  -1.0917  -0.4311   C.ar      1 1      0.0000
     4 C8      -2.7675  -0.1371   0.3922   C.ar      1 1      0.0000
     5 C7      -3.2825   1.1499   0.3717   C.ar      1 1      0.0000
     6 C6      -4.3492   1.4742  -0.4498   C.ar      1 1      0.0000
     7 H4      -4.8523  -1.5271  -1.8910   H         1 1      0.0000
     8 C9      -1.6026  -0.4891   1.2855   C.3       1 1      0.0000
     9 H7      -2.8444   1.9125   1.0071   H         1 1      0.0000
    10 H6      -4.7412   2.4859  -0.4539   H         1 1      0.0000
    11 C10     -0.2498  -0.3522   0.5896   C.3       1 1      0.0000
    12 H9A     -1.6188   0.1650   2.1660   H         1 1      0.0000
    13 C11      0.9596  -0.6948   1.4446   C.3       1 1      0.0000
    14 C12      2.0414   0.3759   1.3544   C.3       1 1      0.0000
    15 H12A     2.7968   0.1882   2.1274   H         1 1      0.0000
    16 C13      2.7125   0.4147   0.0151   C.2       1 1      0.0000
    17 C14      3.7905   1.4364  -0.1892   C.3       1 1      0.0000
    18 H14B     3.4852   2.3721   0.2951   H         1 1      0.0000
    19 H14A     3.8979   1.6385  -1.2619   H         1 1      0.0000
    20 N        2.3726  -0.4337  -0.9347   N.pl3     1 1      0.0000
    21 HN       1.6960  -1.1531  -0.6804   H         1 1      0.0000
    22 C        2.9607  -0.5340  -2.2625   C.3       1 1      0.0000
    23 H1A      2.9850  -1.5692  -2.5963   H         1 1      0.0000
    24 H1C      2.3839   0.0410  -2.9839   H         1 1      0.0000
    25 H1B      3.9799  -0.1534  -2.2638   H         1 1      0.0000
    26 H10A    -0.2468  -1.0065  -0.2909   H         1 1      0.0000
    27 H10B    -0.1439   0.6819   0.2391   H         1 1      0.0000
    28 H9B     -1.7213  -1.5222   1.6349   H         1 1      0.0000
    29 H5      -5.7498   0.7684  -1.9058   H         1 1      0.0000
    30 H3      -2.9557  -2.1046  -0.4314   H         1 1      0.0000
    31 H12B     1.5925   1.3560   1.5575   H         1 1      0.0000
    32 C15      5.1364   1.0139   0.3703   C.3       1 1      0.0000
    33 H15A     5.4470   0.0771  -0.1086   H         1 1      0.0000
    34 H15C     5.0350   0.8222   1.4456   H         1 1      0.0000
    35 OH       0.5440  -0.8274   2.8067   O.3       1 1      0.0000
    36 OH1      0.0503  -1.6767   2.9204   H         1 1      0.0000
    37 H22      1.3783  -1.6539   1.1026   H         1 1      0.0000
    38 C16      6.2048   2.0601   0.1517   C.3       1 1      0.0000
    39 H16C     5.9329   2.9959   0.6354   H         1 1      0.0000
    40 H16A     7.1570   1.7305   0.5621   H         1 1      0.0000
    41 H16B     6.3424   2.2548  -0.9099   H         1 1      0.0000
@<TRIPOS>BOND
     1     1     2   ar
     2     1     6   ar
     3     1    29    1
     4     2     3   ar
     5     2     7    1
     6     3     4   ar
     7     3    30    1
     8     4     5   ar
     9     4     8    1
    10     5     6   ar
    11     5     9    1
    12     6    10    1
    13     8    11    1
    14     8    12    1
    15     8    28    1
    16    11    13    1
    17    11    26    1
    18    11    27    1
    19    13    14    1
    20    14    15    1
    21    14    16    1
    22    14    31    1
    23    16    17    1
    24    16    20    2
    25    17    18    1
    26    17    19    1
    27    17    32    1
    28    20    21    1
    29    20    22    1
    30    22    23    1
    31    22    24    1
    32    22    25    1
    33    32    33    1
    34    32    34    1
    35    13    35    1
    36    35    36    1
    37    13    37    1
    38    32    38    1
    39    38    39    1
    40    38    40    1
    41    38    41    1
@<TRIPOS>SUBSTRUCTURE
     1 1           1 GROUP             0 ****  ****    0  
@<TRIPOS>MOLECULE
Molecule Name_00001_00160
    41    41     1     0     0
SMALL
NO_CHARGES
****
Generated from the CSD

@<TRIPOS>ATOM
     1 C5      -4.6461   1.1745  -0.9391   C.ar      1 1      0.0000
     2 C4      -4.2661  -0.0758  -1.3771   C.ar      1 1      0.0000
     3 C3      -3.2449  -0.7568  -0.7359   C.ar      1 1      0.0000
     4 C8      -2.5914  -0.1973   0.3513   C.ar      1 1      0.0000
     5 C7      -2.9832   1.0615   0.7803   C.ar      1 1      0.0000
     6 C6      -4.0044   1.7433   0.1398   C.ar      1 1      0.0000
     7 H4      -4.7682  -0.5275  -2.2263   H         1 1      0.0000
     8 C9      -1.4760  -0.9386   1.0480   C.3       1 1      0.0000
     9 H7      -2.4837   1.5181   1.6284   H         1 1      0.0000
    10 H6      -4.2998   2.7275   0.4881   H         1 1      0.0000
    11 C10     -0.1076  -0.6984   0.4132   C.3       1 1      0.0000
    12 H9A     -1.4420  -0.6250   2.0987   H         1 1      0.0000
    13 C11      1.0534  -1.4220   1.0761   C.3       1 1      0.0000
    14 C12      2.2318  -0.4894   1.3340   C.3       1 1      0.0000
    15 H12A     2.9565  -0.9982   1.9817   H         1 1      0.0000
    16 C13      2.9205  -0.0589   0.0747   C.2       1 1      0.0000
    17 C14      4.0920   0.8670   0.2086   C.3       1 1      0.0000
    18 H14B     4.7359   0.7498  -0.6717   H         1 1      0.0000
    19 H14A     4.6798   0.5806   1.0892   H         1 1      0.0000
    20 N        2.5147  -0.4977  -1.1001   N.pl3     1 1      0.0000
    21 HN       1.7705  -1.1950  -1.0923   H         1 1      0.0000
    22 C        3.1076  -0.1936  -2.3944   C.3       1 1      0.0000
    23 H1A      2.8169  -0.9351  -3.1355   H         1 1      0.0000
    24 H1C      2.7827   0.7831  -2.7470   H         1 1      0.0000
    25 H1B      4.1935  -0.1861  -2.3301   H         1 1      0.0000
    26 H10A    -0.1548  -1.0110  -0.6372   H         1 1      0.0000
    27 H10B     0.0991   0.3787   0.4335   H         1 1      0.0000
    28 H9B     -1.6954  -2.0132   1.0274   H         1 1      0.0000
    29 H5      -5.4464   1.7082  -1.4410   H         1 1      0.0000
    30 H3      -2.9526  -1.7403  -1.0887   H         1 1      0.0000
    31 H12B     1.8743   0.3999   1.8675   H         1 1      0.0000
    32 C15      3.6965   2.3268   0.3331   C.3       1 1      0.0000
    33 H15A     3.0505   2.4509   1.2109   H         1 1      0.0000
    34 H15C     3.1182   2.6197  -0.5518   H         1 1      0.0000
    35 OH       0.6100  -1.9716   2.3200   O.3       1 1      0.0000
    36 OH1      0.0873  -2.7938   2.1502   H         1 1      0.0000
    37 H22      1.3847  -2.2416   0.4199   H         1 1      0.0000
    38 C16      4.8944   3.2384   0.4667   C.3       1 1      0.0000
    39 H16C     5.5435   3.1522  -0.4022   H         1 1      0.0000
    40 H16A     4.5811   4.2766   0.5541   H         1 1      0.0000
    41 H16B     5.4758   2.9843   1.3505   H         1 1      0.0000
@<TRIPOS>BOND
     1     1     2   ar
     2     1     6   ar
     3     1    29    1
     4     2     3   ar
     5     2     7    1
     6     3     4   ar
     7     3    30    1
     8     4     5   ar
     9     4     8    1
    10     5     6   ar
    11     5     9    1
    12     6    10    1
    13     8    11    1
    14     8    12    1
    15     8    28    1
    16    11    13    1
    17    11    26    1
    18    11    27    1
    19    13    14    1
    20    14    15    1
    21    14    16    1
    22    14    31    1
    23    16    17    1
    24    16    20    2
    25    17    18    1
    26    17    19    1
    27    17    32    1
    28    20    21    1
    29    20    22    1
    30    22    23    1
    31    22    24    1
    32    22    25    1
    33    32    33    1
    34    32    34    1
    35    13    35    1
    36    35    36    1
    37    13    37    1
    38    32    38    1
    39    38    39    1
    40    38    40    1
    41    38    41    1
@<TRIPOS>SUBSTRUCTURE
     1 1           1 GROUP             0 ****  ****    0  
@<TRIPOS>MOLECULE
Molecule Name_00001_00161
    41    41     1     0     0
SMALL
NO_CHARGES
****
Generated from the CSD

@<TRIPOS>ATOM
     1 C5      -4.3735   1.7884  -0.2293   C.ar      1 1      0.0000
     2 C4      -3.4593   1.5755  -1.2384   C.ar      1 1      0.0000
     3 C3      -2.4587   0.6307  -1.0826   C.ar      1 1      0.0000
     4 C8      -2.3598  -0.1134   0.0830   C.ar      1 1      0.0000
     5 C7      -3.2855   0.1122   1.0902   C.ar      1 1      0.0000
     6 C6      -4.2864   1.0567   0.9354   C.ar      1 1      0.0000
     7 H4      -3.5236   2.1494  -2.1569   H         1 1      0.0000
     8 C9      -1.2671  -1.1408   0.2537   C.3       1 1      0.0000
     9 H7      -3.2249  -0.4584   2.0111   H         1 1      0.0000
    10 H6      -5.0036   1.2210   1.7328   H         1 1      0.0000
    11 C10      0.0282  -0.5525   0.8098   C.3       1 1      0.0000
    12 H9A     -1.6211  -1.9279   0.9308   H         1 1      0.0000
    13 C11      1.1638  -1.5447   1.0020   C.3       1 1      0.0000
    14 C12      2.4094  -0.8790   1.5764   C.3       1 1      0.0000
    15 H12A     3.0709  -1.6511   1.9885   H         1 1      0.0000
    16 C13      3.1657  -0.0809   0.5582   C.2       1 1      0.0000
    17 C14      2.6002   1.2503   0.1634   C.3       1 1      0.0000
    18 H14B     3.3592   2.0220   0.3413   H         1 1      0.0000
    19 H14A     1.7384   1.4802   0.8018   H         1 1      0.0000
    20 N        4.2938  -0.5334   0.0483   N.pl3     1 1      0.0000
    21 HN       4.6524  -1.4040   0.4403   H         1 1      0.0000
    22 C        5.1470   0.1461  -0.9157   C.3       1 1      0.0000
    23 H1A      6.1951  -0.0764  -0.7272   H         1 1      0.0000
    24 H1C      4.9106  -0.1701  -1.9296   H         1 1      0.0000
    25 H1B      5.0135   1.2242  -0.8577   H         1 1      0.0000
    26 H10A     0.3701   0.2357   0.1276   H         1 1      0.0000
    27 H10B    -0.1911  -0.0860   1.7781   H         1 1      0.0000
    28 H9B     -1.0599  -1.6051  -0.7184   H         1 1      0.0000
    29 H5      -5.1577   2.5283  -0.3511   H         1 1      0.0000
    30 H3      -1.7435   0.4710  -1.8826   H         1 1      0.0000
    31 H12B     2.1141  -0.2180   2.4006   H         1 1      0.0000
    32 C15      2.1689   1.3159  -1.2901   C.3       1 1      0.0000
    33 H15A     1.4234   0.5338  -1.4798   H         1 1      0.0000
    34 H15C     3.0354   1.1147  -1.9320   H         1 1      0.0000
    35 OH       0.7329  -2.5787   1.8913   O.3       1 1      0.0000
    36 OH1     -0.0394  -3.0536   1.4963   H         1 1      0.0000
    37 H22      1.4160  -1.9918   0.0279   H         1 1      0.0000
    38 C16      1.5817   2.6593  -1.6562   C.3       1 1      0.0000
    39 H16C     2.3081   3.4537  -1.4984   H         1 1      0.0000
    40 H16A     1.2818   2.6771  -2.7020   H         1 1      0.0000
    41 H16B     0.7054   2.8758  -1.0487   H         1 1      0.0000
@<TRIPOS>BOND
     1     1     2   ar
     2     1     6   ar
     3     1    29    1
     4     2     3   ar
     5     2     7    1
     6     3     4   ar
     7     3    30    1
     8     4     5   ar
     9     4     8    1
    10     5     6   ar
    11     5     9    1
    12     6    10    1
    13     8    11    1
    14     8    12    1
    15     8    28    1
    16    11    13    1
    17    11    26    1
    18    11    27    1
    19    13    14    1
    20    14    15    1
    21    14    16    1
    22    14    31    1
    23    16    17    1
    24    16    20    2
    25    17    18    1
    26    17    19    1
    27    17    32    1
    28    20    21    1
    29    20    22    1
    30    22    23    1
    31    22    24    1
    32    22    25    1
    33    32    33    1
    34    32    34    1
    35    13    35    1
    36    35    36    1
    37    13    37    1
    38    32    38    1
    39    38    39    1
    40    38    40    1
    41    38    41    1
@<TRIPOS>SUBSTRUCTURE
     1 1           1 GROUP             0 ****  ****    0  
@<TRIPOS>MOLECULE
Molecule Name_00001_00162
    41    41     1     0     0
SMALL
NO_CHARGES
****
Generated from the CSD

@<TRIPOS>ATOM
     1 C5      -4.8336  -0.1047  -1.2688   C.ar      1 1      0.0000
     2 C4      -3.5780  -0.1958  -1.8297   C.ar      1 1      0.0000
     3 C3      -2.4582  -0.2770  -1.0189   C.ar      1 1      0.0000
     4 C8      -2.5792  -0.2691   0.3621   C.ar      1 1      0.0000
     5 C7      -3.8482  -0.1758   0.9126   C.ar      1 1      0.0000
     6 C6      -4.9687  -0.0945   0.1027   C.ar      1 1      0.0000
     7 H4      -3.4666  -0.2038  -2.9090   H         1 1      0.0000
     8 C9      -1.3581  -0.3544   1.2456   C.3       1 1      0.0000
     9 H7      -3.9650  -0.1664   1.9913   H         1 1      0.0000
    10 H6      -5.9551  -0.0226   0.5489   H         1 1      0.0000
    11 C10     -0.3443   0.7560   0.9769   C.3       1 1      0.0000
    12 H9A     -1.6736  -0.3034   2.2950   H         1 1      0.0000
    13 C11      0.9066   0.7180   1.8399   C.3       1 1      0.0000
    14 C12      2.1205   1.2782   1.1068   C.3       1 1      0.0000
    15 H12A     2.9409   1.4128   1.8225   H         1 1      0.0000
    16 C13      2.5865   0.3936  -0.0093   C.2       1 1      0.0000
    17 C14      3.7722   0.8502  -0.8051   C.3       1 1      0.0000
    18 H14B     3.6941   1.9329  -0.9636   H         1 1      0.0000
    19 H14A     3.7527   0.3691  -1.7906   H         1 1      0.0000
    20 N        1.9808  -0.7495  -0.2621   N.pl3     1 1      0.0000
    21 HN       1.2425  -1.0253   0.3852   H         1 1      0.0000
    22 C        2.3452  -1.7195  -1.2845   C.3       1 1      0.0000
    23 H1A      2.1551  -2.7336  -0.9392   H         1 1      0.0000
    24 H1C      1.7685  -1.5572  -2.1927   H         1 1      0.0000
    25 H1B      3.4008  -1.6391  -1.5351   H         1 1      0.0000
    26 H10A    -0.0396   0.6980  -0.0754   H         1 1      0.0000
    27 H10B    -0.8406   1.7223   1.1295   H         1 1      0.0000
    28 H9B     -0.8731  -1.3260   1.0898   H         1 1      0.0000
    29 H5      -5.7111  -0.0413  -1.9037   H         1 1      0.0000
    30 H3      -1.4740  -0.3478  -1.4702   H         1 1      0.0000
    31 H12B     1.8682   2.2648   0.6990   H         1 1      0.0000
    32 C15      5.1005   0.5497  -0.1357   C.3       1 1      0.0000
    33 H15A     5.1845  -0.5318   0.0277   H         1 1      0.0000
    34 H15C     5.1278   1.0392   0.8457   H         1 1      0.0000
    35 OH       0.6785   1.4869   3.0242   O.3       1 1      0.0000
    36 OH1     -0.0934   1.1136   3.5169   H         1 1      0.0000
    37 H22      1.1126  -0.3256   2.1243   H         1 1      0.0000
    38 C16      6.2786   1.0195  -0.9573   C.3       1 1      0.0000
    39 H16C     6.2331   2.0948  -1.1171   H         1 1      0.0000
    40 H16A     7.2156   0.7911  -0.4537   H         1 1      0.0000
    41 H16B     6.2891   0.5325  -1.9301   H         1 1      0.0000
@<TRIPOS>BOND
     1     1     2   ar
     2     1     6   ar
     3     1    29    1
     4     2     3   ar
     5     2     7    1
     6     3     4   ar
     7     3    30    1
     8     4     5   ar
     9     4     8    1
    10     5     6   ar
    11     5     9    1
    12     6    10    1
    13     8    11    1
    14     8    12    1
    15     8    28    1
    16    11    13    1
    17    11    26    1
    18    11    27    1
    19    13    14    1
    20    14    15    1
    21    14    16    1
    22    14    31    1
    23    16    17    1
    24    16    20    2
    25    17    18    1
    26    17    19    1
    27    17    32    1
    28    20    21    1
    29    20    22    1
    30    22    23    1
    31    22    24    1
    32    22    25    1
    33    32    33    1
    34    32    34    1
    35    13    35    1
    36    35    36    1
    37    13    37    1
    38    32    38    1
    39    38    39    1
    40    38    40    1
    41    38    41    1
@<TRIPOS>SUBSTRUCTURE
     1 1           1 GROUP             0 ****  ****    0  
@<TRIPOS>MOLECULE
Molecule Name_00001_00163
    41    41     1     0     0
SMALL
NO_CHARGES
****
Generated from the CSD

@<TRIPOS>ATOM
     1 C5      -4.6001   0.7937  -1.1331   C.ar      1 1      0.0000
     2 C4      -3.3320   0.8669  -1.6678   C.ar      1 1      0.0000
     3 C3      -2.2593   0.3081  -0.9932   C.ar      1 1      0.0000
     4 C8      -2.4406  -0.3313   0.2235   C.ar      1 1      0.0000
     5 C7      -3.7215  -0.3963   0.7501   C.ar      1 1      0.0000
     6 C6      -4.7948   0.1622   0.0763   C.ar      1 1      0.0000
     7 H4      -3.1737   1.3634  -2.6195   H         1 1      0.0000
     8 C9      -1.2706  -0.9374   0.9601   C.3       1 1      0.0000
     9 H7      -3.8850  -0.8909   1.7019   H         1 1      0.0000
    10 H6      -5.7912   0.1023   0.5014   H         1 1      0.0000
    11 C10     -0.1610   0.0696   1.2560   C.3       1 1      0.0000
    12 H9A     -1.6275  -1.3635   1.9059   H         1 1      0.0000
    13 C11      1.0434  -0.4881   1.9974   C.3       1 1      0.0000
    14 C12      2.3292   0.2405   1.6226   C.3       1 1      0.0000
    15 H12A     3.1251  -0.0569   2.3165   H         1 1      0.0000
    16 C13      2.7728  -0.0445   0.2199   C.2       1 1      0.0000
    17 C14      4.0252   0.6260  -0.2594   C.3       1 1      0.0000
    18 H14B     4.4555   0.0282  -1.0724   H         1 1      0.0000
    19 H14A     4.7571   0.6499   0.5571   H         1 1      0.0000
    20 N        2.0901  -0.8690  -0.5492   N.pl3     1 1      0.0000
    21 HN       1.3043  -1.3512  -0.1133   H         1 1      0.0000
    22 C        2.4216  -1.2641  -1.9105   C.3       1 1      0.0000
    23 H1A      1.8973  -2.1768  -2.1856   H         1 1      0.0000
    24 H1C      2.1403  -0.4858  -2.6169   H         1 1      0.0000
    25 H1B      3.4899  -1.4430  -2.0120   H         1 1      0.0000
    26 H10A     0.1846   0.4920   0.3044   H         1 1      0.0000
    27 H10B    -0.5854   0.8874   1.8514   H         1 1      0.0000
    28 H9B     -0.8578  -1.7572   0.3594   H         1 1      0.0000
    29 H5      -5.4407   1.2311  -1.6614   H         1 1      0.0000
    30 H3      -1.2648   0.3715  -1.4223   H         1 1      0.0000
    31 H12B     2.1744   1.3207   1.7357   H         1 1      0.0000
    32 C15      3.7989   2.0403  -0.7606   C.3       1 1      0.0000
    33 H15A     3.3665   2.6434   0.0473   H         1 1      0.0000
    34 H15C     3.0758   2.0185  -1.5852   H         1 1      0.0000
    35 OH       0.8245  -0.3583   3.4049   O.3       1 1      0.0000
    36 OH1      0.0043  -0.8492   3.6583   H         1 1      0.0000
    37 H22      1.1530  -1.5550   1.7486   H         1 1      0.0000
    38 C16      5.0755   2.6933  -1.2375   C.3       1 1      0.0000
    39 H16C     5.5161   2.1271  -2.0555   H         1 1      0.0000
    40 H16A     4.8832   3.7044  -1.5902   H         1 1      0.0000
    41 H16B     5.8048   2.7483  -0.4320   H         1 1      0.0000
@<TRIPOS>BOND
     1     1     2   ar
     2     1     6   ar
     3     1    29    1
     4     2     3   ar
     5     2     7    1
     6     3     4   ar
     7     3    30    1
     8     4     5   ar
     9     4     8    1
    10     5     6   ar
    11     5     9    1
    12     6    10    1
    13     8    11    1
    14     8    12    1
    15     8    28    1
    16    11    13    1
    17    11    26    1
    18    11    27    1
    19    13    14    1
    20    14    15    1
    21    14    16    1
    22    14    31    1
    23    16    17    1
    24    16    20    2
    25    17    18    1
    26    17    19    1
    27    17    32    1
    28    20    21    1
    29    20    22    1
    30    22    23    1
    31    22    24    1
    32    22    25    1
    33    32    33    1
    34    32    34    1
    35    13    35    1
    36    35    36    1
    37    13    37    1
    38    32    38    1
    39    38    39    1
    40    38    40    1
    41    38    41    1
@<TRIPOS>SUBSTRUCTURE
     1 1           1 GROUP             0 ****  ****    0  
@<TRIPOS>MOLECULE
Molecule Name_00001_00164
    41    41     1     0     0
SMALL
NO_CHARGES
****
Generated from the CSD

@<TRIPOS>ATOM
     1 C5      -4.3978  -0.1848   1.3604   C.ar      1 1      0.0000
     2 C4      -3.2304   0.1574   2.0080   C.ar      1 1      0.0000
     3 C3      -2.1079   0.5109   1.2779   C.ar      1 1      0.0000
     4 C8      -2.1384   0.5276  -0.1081   C.ar      1 1      0.0000
     5 C7      -3.3191   0.1799  -0.7462   C.ar      1 1      0.0000
     6 C6      -4.4421  -0.1738  -0.0170   C.ar      1 1      0.0000
     7 H4      -3.1906   0.1498   3.0922   H         1 1      0.0000
     8 C9      -0.9137   0.9099  -0.9036   C.3       1 1      0.0000
     9 H7      -3.3638   0.1849  -1.8303   H         1 1      0.0000
    10 H6      -5.3588  -0.4428  -0.5313   H         1 1      0.0000
    11 C10      0.0136  -0.2714  -1.1824   C.3       1 1      0.0000
    12 H9A     -1.2315   1.3473  -1.8582   H         1 1      0.0000
    13 C11      1.2644   0.0575  -1.9814   C.3       1 1      0.0000
    14 C12      2.2705   0.8558  -1.1596   C.3       1 1      0.0000
    15 H12A     1.7812   1.7578  -0.7717   H         1 1      0.0000
    16 C13      2.8355   0.0751  -0.0120   C.2       1 1      0.0000
    17 C14      3.6530   0.8231   0.9978   C.3       1 1      0.0000
    18 H14B     4.2412   1.5889   0.4772   H         1 1      0.0000
    19 H14A     4.3583   0.1318   1.4751   H         1 1      0.0000
    20 N        2.6016  -1.2168   0.1053   N.pl3     1 1      0.0000
    21 HN       1.9610  -1.6260  -0.5745   H         1 1      0.0000
    22 C        3.0533  -2.0884   1.1802   C.3       1 1      0.0000
    23 H1A      2.3097  -2.8531   1.3947   H         1 1      0.0000
    24 H1C      3.9820  -2.5857   0.9086   H         1 1      0.0000
    25 H1B      3.2277  -1.5201   2.0914   H         1 1      0.0000
    26 H10A     0.3210  -0.7031  -0.2219   H         1 1      0.0000
    27 H10B    -0.5539  -1.0358  -1.7274   H         1 1      0.0000
    28 H9B     -0.3572   1.6784  -0.3532   H         1 1      0.0000
    29 H5      -5.2775  -0.4616   1.9320   H         1 1      0.0000
    30 H3      -1.1934   0.7782   1.7970   H         1 1      0.0000
    31 H12B     3.0918   1.1762  -1.8124   H         1 1      0.0000
    32 C15      2.8181   1.4955   2.0719   C.3       1 1      0.0000
    33 H15A     3.4835   1.8969   2.8462   H         1 1      0.0000
    34 H15C     2.1689   0.7477   2.5438   H         1 1      0.0000
    35 OH       1.8748  -1.1618  -2.4134   O.3       1 1      0.0000
    36 OH1      1.2349  -1.6734  -2.9672   H         1 1      0.0000
    37 H22      0.9783   0.6480  -2.8655   H         1 1      0.0000
    38 C16      1.9660   2.6157   1.5216   C.3       1 1      0.0000
    39 H16C     1.0820   2.2200   1.0258   H         1 1      0.0000
    40 H16A     1.6386   3.2790   2.3195   H         1 1      0.0000
    41 H16B     2.5248   3.2057   0.7982   H         1 1      0.0000
@<TRIPOS>BOND
     1     1     2   ar
     2     1     6   ar
     3     1    29    1
     4     2     3   ar
     5     2     7    1
     6     3     4   ar
     7     3    30    1
     8     4     5   ar
     9     4     8    1
    10     5     6   ar
    11     5     9    1
    12     6    10    1
    13     8    11    1
    14     8    12    1
    15     8    28    1
    16    11    13    1
    17    11    26    1
    18    11    27    1
    19    13    14    1
    20    14    15    1
    21    14    16    1
    22    14    31    1
    23    16    17    1
    24    16    20    2
    25    17    18    1
    26    17    19    1
    27    17    32    1
    28    20    21    1
    29    20    22    1
    30    22    23    1
    31    22    24    1
    32    22    25    1
    33    32    33    1
    34    32    34    1
    35    13    35    1
    36    35    36    1
    37    13    37    1
    38    32    38    1
    39    38    39    1
    40    38    40    1
    41    38    41    1
@<TRIPOS>SUBSTRUCTURE
     1 1           1 GROUP             0 ****  ****    0  
@<TRIPOS>MOLECULE
Molecule Name_00001_00165
    41    41     1     0     0
SMALL
NO_CHARGES
****
Generated from the CSD

@<TRIPOS>ATOM
     1 C5      -4.3397   0.0895   1.5041   C.ar      1 1      0.0000
     2 C4      -3.1694   0.6388   1.9817   C.ar      1 1      0.0000
     3 C3      -2.0893   0.8200   1.1340   C.ar      1 1      0.0000
     4 C8      -2.1656   0.4554  -0.2014   C.ar      1 1      0.0000
     5 C7      -3.3485  -0.0970  -0.6679   C.ar      1 1      0.0000
     6 C6      -4.4292  -0.2787   0.1790   C.ar      1 1      0.0000
     7 H4      -3.0941   0.9299   3.0242   H         1 1      0.0000
     8 C9      -0.9870   0.6501  -1.1243   C.3       1 1      0.0000
     9 H7      -3.4287  -0.3907  -1.7093   H         1 1      0.0000
    10 H6      -5.3483  -0.7118  -0.2015   H         1 1      0.0000
    11 C10     -0.0141  -0.5273  -1.1119   C.3       1 1      0.0000
    12 H9A     -1.3560   0.7973  -2.1469   H         1 1      0.0000
    13 C11      1.1930  -0.3839  -2.0247   C.3       1 1      0.0000
    14 C12      2.1854   0.6466  -1.4974   C.3       1 1      0.0000
    15 H12A     1.6670   1.6025  -1.3534   H         1 1      0.0000
    16 C13      2.8199   0.2355  -0.2036   C.2       1 1      0.0000
    17 C14      3.6248   1.2656   0.5303   C.3       1 1      0.0000
    18 H14B     4.2016   1.8472  -0.1994   H         1 1      0.0000
    19 H14A     4.3402   0.7613   1.1914   H         1 1      0.0000
    20 N        2.6555  -0.9830   0.2714   N.pl3     1 1      0.0000
    21 HN       2.0186  -1.5897  -0.2449   H         1 1      0.0000
    22 C        3.1794  -1.5061   1.5247   C.3       1 1      0.0000
    23 H1A      2.4717  -2.1952   1.9809   H         1 1      0.0000
    24 H1C      4.1131  -2.0397   1.3592   H         1 1      0.0000
    25 H1B      3.3707  -0.7003   2.2302   H         1 1      0.0000
    26 H10A     0.3445  -0.6679  -0.0847   H         1 1      0.0000
    27 H10B    -0.5620  -1.4322  -1.4025   H         1 1      0.0000
    28 H9B     -0.4500   1.5600  -0.8290   H         1 1      0.0000
    29 H5      -5.1861  -0.0524   2.1678   H         1 1      0.0000
    30 H3      -1.1722   1.2527   1.5197   H         1 1      0.0000
    31 H12B     2.9712   0.8027  -2.2468   H         1 1      0.0000
    32 C15      2.7786   2.2183   1.3544   C.3       1 1      0.0000
    33 H15A     2.0397   2.6995   0.7018   H         1 1      0.0000
    34 H15C     3.4217   3.0048   1.7682   H         1 1      0.0000
    35 OH       1.8472  -1.6512  -2.1339   O.3       1 1      0.0000
    36 OH1      1.2152  -2.3189  -2.4982   H         1 1      0.0000
    37 H22      0.8505  -0.0703  -3.0230   H         1 1      0.0000
    38 C16      2.0601   1.5190   2.4851   C.3       1 1      0.0000
    39 H16C     2.7709   1.0499   3.1621   H         1 1      0.0000
    40 H16A     1.4623   2.2253   3.0575   H         1 1      0.0000
    41 H16B     1.3969   0.7466   2.1014   H         1 1      0.0000
@<TRIPOS>BOND
     1     1     2   ar
     2     1     6   ar
     3     1    29    1
     4     2     3   ar
     5     2     7    1
     6     3     4   ar
     7     3    30    1
     8     4     5   ar
     9     4     8    1
    10     5     6   ar
    11     5     9    1
    12     6    10    1
    13     8    11    1
    14     8    12    1
    15     8    28    1
    16    11    13    1
    17    11    26    1
    18    11    27    1
    19    13    14    1
    20    14    15    1
    21    14    16    1
    22    14    31    1
    23    16    17    1
    24    16    20    2
    25    17    18    1
    26    17    19    1
    27    17    32    1
    28    20    21    1
    29    20    22    1
    30    22    23    1
    31    22    24    1
    32    22    25    1
    33    32    33    1
    34    32    34    1
    35    13    35    1
    36    35    36    1
    37    13    37    1
    38    32    38    1
    39    38    39    1
    40    38    40    1
    41    38    41    1
@<TRIPOS>SUBSTRUCTURE
     1 1           1 GROUP             0 ****  ****    0  
@<TRIPOS>MOLECULE
Molecule Name_00001_00166
    41    41     1     0     0
SMALL
NO_CHARGES
****
Generated from the CSD

@<TRIPOS>ATOM
     1 C5      -4.8317  -0.2934   1.1197   C.ar      1 1      0.0000
     2 C4      -3.7737   0.2905   1.7823   C.ar      1 1      0.0000
     3 C3      -2.6242   0.6342   1.0906   C.ar      1 1      0.0000
     4 C8      -2.5180   0.3994  -0.2716   C.ar      1 1      0.0000
     5 C7      -3.5895  -0.1897  -0.9250   C.ar      1 1      0.0000
     6 C6      -4.7395  -0.5338  -0.2342   C.ar      1 1      0.0000
     7 H4      -3.8415   0.4813   2.8482   H         1 1      0.0000
     8 C9      -1.2635   0.7713  -1.0246   C.3       1 1      0.0000
     9 H7      -3.5264  -0.3836  -1.9907   H         1 1      0.0000
    10 H6      -5.5697  -0.9936  -0.7602   H         1 1      0.0000
    11 C10     -0.2018  -0.3266  -1.0011   C.3       1 1      0.0000
    12 H9A     -1.5260   0.9917  -2.0667   H         1 1      0.0000
    13 C11      1.0841  -0.0045  -1.7452   C.3       1 1      0.0000
    14 C12      1.9195   1.0389  -1.0117   C.3       1 1      0.0000
    15 H12A     1.3088   1.9349  -0.8457   H         1 1      0.0000
    16 C13      2.4365   0.5493   0.3069   C.2       1 1      0.0000
    17 C14      3.0630   1.5580   1.2221   C.3       1 1      0.0000
    18 H14B     2.9900   1.1911   2.2533   H         1 1      0.0000
    19 H14A     2.4994   2.4972   1.1642   H         1 1      0.0000
    20 N        2.3235  -0.7192   0.6470   N.pl3     1 1      0.0000
    21 HN       1.8028  -1.3169   0.0053   H         1 1      0.0000
    22 C        2.7452  -1.3241   1.9021   C.3       1 1      0.0000
    23 H1A      2.3516  -2.3341   1.9948   H         1 1      0.0000
    24 H1C      3.8304  -1.3769   1.9590   H         1 1      0.0000
    25 H1B      2.3898  -0.7426   2.7502   H         1 1      0.0000
    26 H10A     0.0492  -0.5416   0.0449   H         1 1      0.0000
    27 H10B    -0.6346  -1.2361  -1.4358   H         1 1      0.0000
    28 H9B     -0.8425   1.6844  -0.5861   H         1 1      0.0000
    29 H5      -5.7326  -0.5626   1.6612   H         1 1      0.0000
    30 H3      -1.7965   1.0929   1.6214   H         1 1      0.0000
    31 H12B     2.7687   1.3262  -1.6438   H         1 1      0.0000
    32 C15      4.5206   1.8370   0.9055   C.3       1 1      0.0000
    33 H15A     4.8755   2.6590   1.5394   H         1 1      0.0000
    34 H15C     4.6066   2.1596  -0.1395   H         1 1      0.0000
    35 OH       1.8516  -1.2030  -1.8884   O.3       1 1      0.0000
    36 OH1      1.3237  -1.8760  -2.3848   H         1 1      0.0000
    37 H22      0.8310   0.3806  -2.7452   H         1 1      0.0000
    38 C16      5.3993   0.6273   1.1251   C.3       1 1      0.0000
    39 H16C     5.0833  -0.1989   0.4916   H         1 1      0.0000
    40 H16A     6.4367   0.8565   0.8907   H         1 1      0.0000
    41 H16B     5.3505   0.2981   2.1609   H         1 1      0.0000
@<TRIPOS>BOND
     1     1     2   ar
     2     1     6   ar
     3     1    29    1
     4     2     3   ar
     5     2     7    1
     6     3     4   ar
     7     3    30    1
     8     4     5   ar
     9     4     8    1
    10     5     6   ar
    11     5     9    1
    12     6    10    1
    13     8    11    1
    14     8    12    1
    15     8    28    1
    16    11    13    1
    17    11    26    1
    18    11    27    1
    19    13    14    1
    20    14    15    1
    21    14    16    1
    22    14    31    1
    23    16    17    1
    24    16    20    2
    25    17    18    1
    26    17    19    1
    27    17    32    1
    28    20    21    1
    29    20    22    1
    30    22    23    1
    31    22    24    1
    32    22    25    1
    33    32    33    1
    34    32    34    1
    35    13    35    1
    36    35    36    1
    37    13    37    1
    38    32    38    1
    39    38    39    1
    40    38    40    1
    41    38    41    1
@<TRIPOS>SUBSTRUCTURE
     1 1           1 GROUP             0 ****  ****    0  
@<TRIPOS>MOLECULE
Molecule Name_00001_00167
    41    41     1     0     0
SMALL
NO_CHARGES
****
Generated from the CSD

@<TRIPOS>ATOM
     1 C5      -4.8172  -0.6325   0.8935   C.ar      1 1      0.0000
     2 C4      -3.7476  -0.4066   1.7328   C.ar      1 1      0.0000
     3 C3      -2.5804   0.1505   1.2375   C.ar      1 1      0.0000
     4 C8      -2.4679   0.4895  -0.1021   C.ar      1 1      0.0000
     5 C7      -3.5513   0.2555  -0.9350   C.ar      1 1      0.0000
     6 C6      -4.7189  -0.3015  -0.4407   C.ar      1 1      0.0000
     7 H4      -3.8201  -0.6658   2.7839   H         1 1      0.0000
     8 C9      -1.1944   1.0937  -0.6422   C.3       1 1      0.0000
     9 H7      -3.4836   0.5121  -1.9870   H         1 1      0.0000
    10 H6      -5.5582  -0.4778  -1.1054   H         1 1      0.0000
    11 C10     -0.1693   0.0467  -1.0737   C.3       1 1      0.0000
    12 H9A     -1.4387   1.7295  -1.5021   H         1 1      0.0000
    13 C11      1.1340   0.6009  -1.6262   C.3       1 1      0.0000
    14 C12      1.9950   1.2253  -0.5337   C.3       1 1      0.0000
    15 H12A     1.4127   1.9974  -0.0158   H         1 1      0.0000
    16 C13      2.4792   0.2236   0.4701   C.2       1 1      0.0000
    17 C14      3.1233   0.7499   1.7175   C.3       1 1      0.0000
    18 H14B     3.0183   0.0001   2.5113   H         1 1      0.0000
    19 H14A     2.5938   1.6535   2.0436   H         1 1      0.0000
    20 N        2.3238  -1.0688   0.2627   N.pl3     1 1      0.0000
    21 HN       1.7942  -1.3352  -0.5671   H         1 1      0.0000
    22 C        2.7102  -2.1467   1.1616   C.3       1 1      0.0000
    23 H1A      2.1722  -3.0612   0.9208   H         1 1      0.0000
    24 H1C      3.7761  -2.3502   1.0834   H         1 1      0.0000
    25 H1B      2.4904  -1.8861   2.1947   H         1 1      0.0000
    26 H10A     0.0638  -0.5854  -0.2080   H         1 1      0.0000
    27 H10B    -0.6270  -0.5904  -1.8405   H         1 1      0.0000
    28 H9B     -0.7483   1.7331   0.1296   H         1 1      0.0000
    29 H5      -5.7319  -1.0687   1.2812   H         1 1      0.0000
    30 H3      -1.7437   0.3239   1.9062   H         1 1      0.0000
    31 H12B     2.8610   1.7145  -0.9963   H         1 1      0.0000
    32 C15      4.5954   1.0757   1.5455   C.3       1 1      0.0000
    33 H15A     5.1207   0.1848   1.1800   H         1 1      0.0000
    34 H15C     5.0221   1.3387   2.5213   H         1 1      0.0000
    35 OH       1.8639  -0.4598  -2.2490   O.3       1 1      0.0000
    36 OH1      1.3198  -0.8535  -2.9750   H         1 1      0.0000
    37 H22      0.9039   1.3689  -2.3809   H         1 1      0.0000
    38 C16      4.8237   2.2162   0.5807   C.3       1 1      0.0000
    39 H16C     4.0277   2.9537   0.6600   H         1 1      0.0000
    40 H16A     5.7687   2.7138   0.7884   H         1 1      0.0000
    41 H16B     4.8495   1.8543  -0.4451   H         1 1      0.0000
@<TRIPOS>BOND
     1     1     2   ar
     2     1     6   ar
     3     1    29    1
     4     2     3   ar
     5     2     7    1
     6     3     4   ar
     7     3    30    1
     8     4     5   ar
     9     4     8    1
    10     5     6   ar
    11     5     9    1
    12     6    10    1
    13     8    11    1
    14     8    12    1
    15     8    28    1
    16    11    13    1
    17    11    26    1
    18    11    27    1
    19    13    14    1
    20    14    15    1
    21    14    16    1
    22    14    31    1
    23    16    17    1
    24    16    20    2
    25    17    18    1
    26    17    19    1
    27    17    32    1
    28    20    21    1
    29    20    22    1
    30    22    23    1
    31    22    24    1
    32    22    25    1
    33    32    33    1
    34    32    34    1
    35    13    35    1
    36    35    36    1
    37    13    37    1
    38    32    38    1
    39    38    39    1
    40    38    40    1
    41    38    41    1
@<TRIPOS>SUBSTRUCTURE
     1 1           1 GROUP             0 ****  ****    0  
@<TRIPOS>MOLECULE
Molecule Name_00001_00168
    41    41     1     0     0
SMALL
NO_CHARGES
****
Generated from the CSD

@<TRIPOS>ATOM
     1 C5      -4.0162  -0.5479   1.4645   C.ar      1 1      0.0000
     2 C4      -3.0299   0.3149   1.8911   C.ar      1 1      0.0000
     3 C3      -2.1989   0.9312   0.9705   C.ar      1 1      0.0000
     4 C8      -2.3437   0.6936  -0.3877   C.ar      1 1      0.0000
     5 C7      -3.3393  -0.1776  -0.8025   C.ar      1 1      0.0000
     6 C6      -4.1708  -0.7944   0.1174   C.ar      1 1      0.0000
     7 H4      -2.9041   0.5118   2.9507   H         1 1      0.0000
     8 C9      -1.4356   1.3630  -1.3906   C.3       1 1      0.0000
     9 H7      -3.4686  -0.3786  -1.8608   H         1 1      0.0000
    10 H6      -4.9457  -1.4732  -0.2233   H         1 1      0.0000
    11 C10     -0.5819   0.3736  -2.1814   C.3       1 1      0.0000
    12 H9A     -2.0467   1.9461  -2.0906   H         1 1      0.0000
    13 C11      0.5267  -0.3048  -1.3928   C.3       1 1      0.0000
    14 C12      1.5365   0.7009  -0.8509   C.3       1 1      0.0000
    15 H12A     1.0334   1.3649  -0.1372   H         1 1      0.0000
    16 C13      2.7022   0.0481  -0.1723   C.2       1 1      0.0000
    17 C14      3.7514   0.9438   0.4148   C.3       1 1      0.0000
    18 H14B     3.9195   1.7847  -0.2694   H         1 1      0.0000
    19 H14A     4.6946   0.3899   0.4965   H         1 1      0.0000
    20 N        2.7835  -1.2645  -0.0846   N.pl3     1 1      0.0000
    21 HN       1.9823  -1.7933  -0.4293   H         1 1      0.0000
    22 C        3.8330  -2.0290   0.5733   C.3       1 1      0.0000
    23 H1A      3.4259  -2.9279   1.0315   H         1 1      0.0000
    24 H1C      4.5967  -2.3292  -0.1411   H         1 1      0.0000
    25 H1B      4.3114  -1.4386   1.3518   H         1 1      0.0000
    26 H10A    -1.2413  -0.4030  -2.5882   H         1 1      0.0000
    27 H10B    -0.1290   0.9057  -3.0270   H         1 1      0.0000
    28 H9B     -0.7752   2.0616  -0.8623   H         1 1      0.0000
    29 H5      -4.6676  -1.0307   2.1854   H         1 1      0.0000
    30 H3      -1.4249   1.6084   1.3164   H         1 1      0.0000
    31 H12B     1.9054   1.3189  -1.6788   H         1 1      0.0000
    32 C15      3.3816   1.4923   1.7805   C.3       1 1      0.0000
    33 H15A     3.2100   0.6562   2.4696   H         1 1      0.0000
    34 H15C     2.4444   2.0568   1.6998   H         1 1      0.0000
    35 OH      -0.0521  -1.0229  -0.2996   O.3       1 1      0.0000
    36 OH1     -0.6908  -1.6937  -0.6461   H         1 1      0.0000
    37 H22      1.0499  -1.0153  -2.0514   H         1 1      0.0000
    38 C16      4.4547   2.3913   2.3497   C.3       1 1      0.0000
    39 H16C     4.6309   3.2431   1.6962   H         1 1      0.0000
    40 H16A     4.1628   2.7689   3.3274   H         1 1      0.0000
    41 H16B     5.3919   1.8501   2.4614   H         1 1      0.0000
@<TRIPOS>BOND
     1     1     2   ar
     2     1     6   ar
     3     1    29    1
     4     2     3   ar
     5     2     7    1
     6     3     4   ar
     7     3    30    1
     8     4     5   ar
     9     4     8    1
    10     5     6   ar
    11     5     9    1
    12     6    10    1
    13     8    11    1
    14     8    12    1
    15     8    28    1
    16    11    13    1
    17    11    26    1
    18    11    27    1
    19    13    14    1
    20    14    15    1
    21    14    16    1
    22    14    31    1
    23    16    17    1
    24    16    20    2
    25    17    18    1
    26    17    19    1
    27    17    32    1
    28    20    21    1
    29    20    22    1
    30    22    23    1
    31    22    24    1
    32    22    25    1
    33    32    33    1
    34    32    34    1
    35    13    35    1
    36    35    36    1
    37    13    37    1
    38    32    38    1
    39    38    39    1
    40    38    40    1
    41    38    41    1
@<TRIPOS>SUBSTRUCTURE
     1 1           1 GROUP             0 ****  ****    0  
@<TRIPOS>MOLECULE
Molecule Name_00001_00169
    41    41     1     0     0
SMALL
NO_CHARGES
****
Generated from the CSD

@<TRIPOS>ATOM
     1 C5      -4.3024  -1.0356   0.8918   C.ar      1 1      0.0000
     2 C4      -3.3903  -0.4046   1.7099   C.ar      1 1      0.0000
     3 C3      -2.4857   0.4984   1.1767   C.ar      1 1      0.0000
     4 C8      -2.4820   0.7826  -0.1803   C.ar      1 1      0.0000
     5 C7      -3.4042   0.1396  -0.9915   C.ar      1 1      0.0000
     6 C6      -4.3092  -0.7636  -0.4593   C.ar      1 1      0.0000
     7 H4      -3.3809  -0.6158   2.7741   H         1 1      0.0000
     8 C9      -1.4937   1.7646  -0.7616   C.3       1 1      0.0000
     9 H7      -3.4172   0.3465  -2.0565   H         1 1      0.0000
    10 H6      -5.0251  -1.2582  -1.1074   H         1 1      0.0000
    11 C10     -0.5350   1.1278  -1.7658   C.3       1 1      0.0000
    12 H9A     -2.0449   2.5730  -1.2575   H         1 1      0.0000
    13 C11      0.5042   0.1917  -1.1702   C.3       1 1      0.0000
    14 C12      1.4236   0.9125  -0.1904   C.3       1 1      0.0000
    15 H12A     0.8307   1.2711   0.6600   H         1 1      0.0000
    16 C13      2.5304   0.0402   0.3193   C.2       1 1      0.0000
    17 C14      3.4874   0.6416   1.3043   C.3       1 1      0.0000
    18 H14B     3.9351  -0.1651   1.8978   H         1 1      0.0000
    19 H14A     2.9352   1.2922   1.9933   H         1 1      0.0000
    20 N        2.6387  -1.2125  -0.0761   N.pl3     1 1      0.0000
    21 HN       1.8929  -1.5659  -0.6751   H         1 1      0.0000
    22 C        3.6353  -2.1794   0.3610   C.3       1 1      0.0000
    23 H1A      3.5163  -3.1222  -0.1690   H         1 1      0.0000
    24 H1C      4.6406  -1.8090   0.1716   H         1 1      0.0000
    25 H1B      3.5422  -2.3757   1.4269   H         1 1      0.0000
    26 H10A    -1.1265   0.5654  -2.4988   H         1 1      0.0000
    27 H10B    -0.0119   1.9296  -2.3014   H         1 1      0.0000
    28 H9B     -0.9116   2.2094   0.0549   H         1 1      0.0000
    29 H5      -5.0114  -1.7429   1.3092   H         1 1      0.0000
    30 H3      -1.7713   0.9896   1.8290   H         1 1      0.0000
    31 H12B     1.8591   1.7885  -0.6867   H         1 1      0.0000
    32 C15      4.5994   1.4432   0.6532   C.3       1 1      0.0000
    33 H15A     4.1584   2.2509   0.0561   H         1 1      0.0000
    34 H15C     5.1610   0.7921  -0.0280   H         1 1      0.0000
    35 OH      -0.1647  -0.8729  -0.4883   O.3       1 1      0.0000
    36 OH1     -0.7449  -1.3596  -1.1244   H         1 1      0.0000
    37 H22      1.1127  -0.2308  -1.9847   H         1 1      0.0000
    38 C16      5.5495   2.0381   1.6666   C.3       1 1      0.0000
    39 H16C     6.0192   1.2566   2.2602   H         1 1      0.0000
    40 H16A     6.3346   2.6063   1.1721   H         1 1      0.0000
    41 H16B     5.0221   2.7070   2.3435   H         1 1      0.0000
@<TRIPOS>BOND
     1     1     2   ar
     2     1     6   ar
     3     1    29    1
     4     2     3   ar
     5     2     7    1
     6     3     4   ar
     7     3    30    1
     8     4     5   ar
     9     4     8    1
    10     5     6   ar
    11     5     9    1
    12     6    10    1
    13     8    11    1
    14     8    12    1
    15     8    28    1
    16    11    13    1
    17    11    26    1
    18    11    27    1
    19    13    14    1
    20    14    15    1
    21    14    16    1
    22    14    31    1
    23    16    17    1
    24    16    20    2
    25    17    18    1
    26    17    19    1
    27    17    32    1
    28    20    21    1
    29    20    22    1
    30    22    23    1
    31    22    24    1
    32    22    25    1
    33    32    33    1
    34    32    34    1
    35    13    35    1
    36    35    36    1
    37    13    37    1
    38    32    38    1
    39    38    39    1
    40    38    40    1
    41    38    41    1
@<TRIPOS>SUBSTRUCTURE
     1 1           1 GROUP             0 ****  ****    0  
@<TRIPOS>MOLECULE
Molecule Name_00001_00170
    41    41     1     0     0
SMALL
NO_CHARGES
****
Generated from the CSD

@<TRIPOS>ATOM
     1 C5      -5.5756  -0.0853   0.7583   C.ar      1 1      0.0000
     2 C4      -5.0187   1.1740   0.7011   C.ar      1 1      0.0000
     3 C3      -3.7434   1.3480   0.1898   C.ar      1 1      0.0000
     4 C8      -3.0093   0.2660  -0.2712   C.ar      1 1      0.0000
     5 C7      -3.5816  -0.9951  -0.2064   C.ar      1 1      0.0000
     6 C6      -4.8568  -1.1701   0.3046   C.ar      1 1      0.0000
     7 H4      -5.5806   2.0311   1.0574   H         1 1      0.0000
     8 C9      -1.6180   0.4557  -0.8254   C.3       1 1      0.0000
     9 H7      -3.0235  -1.8556  -0.5605   H         1 1      0.0000
    10 H6      -5.2909  -2.1636   0.3480   H         1 1      0.0000
    11 C10     -0.5338   0.4203   0.2499   C.3       1 1      0.0000
    12 H9A     -1.4172  -0.3331  -1.5608   H         1 1      0.0000
    13 C11      0.8885   0.6065  -0.2536   C.3       1 1      0.0000
    14 C12      1.8347  -0.4461   0.3133   C.3       1 1      0.0000
    15 H12A     1.5215  -1.4367  -0.0391   H         1 1      0.0000
    16 C13      3.2628  -0.2175  -0.0789   C.2       1 1      0.0000
    17 C14      3.9939   0.9052   0.5940   C.3       1 1      0.0000
    18 H14B     3.3125   1.7590   0.6944   H         1 1      0.0000
    19 H14A     4.8309   1.2224  -0.0399   H         1 1      0.0000
    20 N        3.8500  -0.9912  -0.9700   N.pl3     1 1      0.0000
    21 HN       3.3082  -1.7861  -1.3088   H         1 1      0.0000
    22 C        5.2328  -0.9086  -1.4172   C.3       1 1      0.0000
    23 H1A      5.6301  -1.8994  -1.6272   H         1 1      0.0000
    24 H1C      5.3093  -0.3136  -2.3249   H         1 1      0.0000
    25 H1B      5.8584  -0.4468  -0.6563   H         1 1      0.0000
    26 H10A    -0.7472   1.2095   0.9814   H         1 1      0.0000
    27 H10B    -0.5932  -0.5438   0.7699   H         1 1      0.0000
    28 H9B     -1.5712   1.4191  -1.3480   H         1 1      0.0000
    29 H5      -6.5748  -0.2220   1.1585   H         1 1      0.0000
    30 H3      -3.3135   2.3434   0.1496   H         1 1      0.0000
    31 H12B     1.7600  -0.4423   1.4077   H         1 1      0.0000
    32 C15      4.5259   0.5414   1.9679   C.3       1 1      0.0000
    33 H15A     5.2069  -0.3136   1.8751   H         1 1      0.0000
    34 H15C     3.6895   0.2347   2.6080   H         1 1      0.0000
    35 OH       0.8920   0.5194  -1.6812   O.3       1 1      0.0000
    36 OH1      0.4822   1.3345  -2.0630   H         1 1      0.0000
    37 H22      1.2453   1.6042   0.0455   H         1 1      0.0000
    38 C16      5.2579   1.6890   2.6242   C.3       1 1      0.0000
    39 H16C     4.5990   2.5457   2.7492   H         1 1      0.0000
    40 H16A     5.6276   1.3997   3.6058   H         1 1      0.0000
    41 H16B     6.1077   2.0002   2.0203   H         1 1      0.0000
@<TRIPOS>BOND
     1     1     2   ar
     2     1     6   ar
     3     1    29    1
     4     2     3   ar
     5     2     7    1
     6     3     4   ar
     7     3    30    1
     8     4     5   ar
     9     4     8    1
    10     5     6   ar
    11     5     9    1
    12     6    10    1
    13     8    11    1
    14     8    12    1
    15     8    28    1
    16    11    13    1
    17    11    26    1
    18    11    27    1
    19    13    14    1
    20    14    15    1
    21    14    16    1
    22    14    31    1
    23    16    17    1
    24    16    20    2
    25    17    18    1
    26    17    19    1
    27    17    32    1
    28    20    21    1
    29    20    22    1
    30    22    23    1
    31    22    24    1
    32    22    25    1
    33    32    33    1
    34    32    34    1
    35    13    35    1
    36    35    36    1
    37    13    37    1
    38    32    38    1
    39    38    39    1
    40    38    40    1
    41    38    41    1
@<TRIPOS>SUBSTRUCTURE
     1 1           1 GROUP             0 ****  ****    0  
@<TRIPOS>MOLECULE
Molecule Name_00001_00171
    41    41     1     0     0
SMALL
NO_CHARGES
****
Generated from the CSD

@<TRIPOS>ATOM
     1 C5      -5.5746  -0.2060   0.3749   C.ar      1 1      0.0000
     2 C4      -4.9473   0.7431   1.1528   C.ar      1 1      0.0000
     3 C3      -3.6263   1.0798   0.9090   C.ar      1 1      0.0000
     4 C8      -2.9161   0.4731  -0.1154   C.ar      1 1      0.0000
     5 C7      -3.5593  -0.4807  -0.8891   C.ar      1 1      0.0000
     6 C6      -4.8803  -0.8182  -0.6462   C.ar      1 1      0.0000
     7 H4      -5.4897   1.2275   1.9581   H         1 1      0.0000
     8 C9      -1.4752   0.8381  -0.3788   C.3       1 1      0.0000
     9 H7      -3.0212  -0.9688  -1.6950   H         1 1      0.0000
    10 H6      -5.3698  -1.5663  -1.2611   H         1 1      0.0000
    11 C10     -0.4879   0.0254   0.4566   C.3       1 1      0.0000
    12 H9A     -1.2568   0.6810  -1.4423   H         1 1      0.0000
    13 C11      0.9794   0.3527   0.2309   C.3       1 1      0.0000
    14 C12      1.8166  -0.9042   0.0211   C.3       1 1      0.0000
    15 H12A     1.4462  -1.4382  -0.8627   H         1 1      0.0000
    16 C13      3.2744  -0.6094  -0.1619   C.2       1 1      0.0000
    17 C14      4.0656  -0.2472   1.0589   C.3       1 1      0.0000
    18 H14B     5.1008  -0.5826   0.9199   H         1 1      0.0000
    19 H14A     3.6579  -0.7822   1.9253   H         1 1      0.0000
    20 N        3.8339  -0.6860  -1.3529   N.pl3     1 1      0.0000
    21 HN       3.2436  -1.0281  -2.1110   H         1 1      0.0000
    22 C        5.2370  -0.4636  -1.6707   C.3       1 1      0.0000
    23 H1A      5.5035  -0.9549  -2.6041   H         1 1      0.0000
    24 H1C      5.4444   0.5993  -1.7761   H         1 1      0.0000
    25 H1B      5.8785  -0.8572  -0.8852   H         1 1      0.0000
    26 H10A    -0.7185   0.1865   1.5169   H         1 1      0.0000
    27 H10B    -0.6427  -1.0383   0.2376   H         1 1      0.0000
    28 H9B     -1.3328   1.9041  -0.1627   H         1 1      0.0000
    29 H5      -6.6096  -0.4700   0.5655   H         1 1      0.0000
    30 H3      -3.1412   1.8278   1.5274   H         1 1      0.0000
    31 H12B     1.6920  -1.5658   0.8872   H         1 1      0.0000
    32 C15      4.0704   1.2410   1.3556   C.3       1 1      0.0000
    33 H15A     3.0389   1.5800   1.5117   H         1 1      0.0000
    34 H15C     4.4718   1.7795   0.4883   H         1 1      0.0000
    35 OH       1.0972   1.1918  -0.9214   O.3       1 1      0.0000
    36 OH1      0.8175   2.1118  -0.6902   H         1 1      0.0000
    37 H22      1.3636   0.8941   1.1093   H         1 1      0.0000
    38 C16      4.8940   1.5821   2.5759   C.3       1 1      0.0000
    39 H16C     5.9293   1.2761   2.4403   H         1 1      0.0000
    40 H16A     4.8791   2.6536   2.7640   H         1 1      0.0000
    41 H16B     4.5042   1.0777   3.4576   H         1 1      0.0000
@<TRIPOS>BOND
     1     1     2   ar
     2     1     6   ar
     3     1    29    1
     4     2     3   ar
     5     2     7    1
     6     3     4   ar
     7     3    30    1
     8     4     5   ar
     9     4     8    1
    10     5     6   ar
    11     5     9    1
    12     6    10    1
    13     8    11    1
    14     8    12    1
    15     8    28    1
    16    11    13    1
    17    11    26    1
    18    11    27    1
    19    13    14    1
    20    14    15    1
    21    14    16    1
    22    14    31    1
    23    16    17    1
    24    16    20    2
    25    17    18    1
    26    17    19    1
    27    17    32    1
    28    20    21    1
    29    20    22    1
    30    22    23    1
    31    22    24    1
    32    22    25    1
    33    32    33    1
    34    32    34    1
    35    13    35    1
    36    35    36    1
    37    13    37    1
    38    32    38    1
    39    38    39    1
    40    38    40    1
    41    38    41    1
@<TRIPOS>SUBSTRUCTURE
     1 1           1 GROUP             0 ****  ****    0  
@<TRIPOS>MOLECULE
Molecule Name_00001_00172
    41    41     1     0     0
SMALL
NO_CHARGES
****
Generated from the CSD

@<TRIPOS>ATOM
     1 C5      -5.5909   0.5462  -0.3525   C.ar      1 1      0.0000
     2 C4      -5.1222  -0.7484  -0.2905   C.ar      1 1      0.0000
     3 C3      -3.8149  -0.9972   0.0929   C.ar      1 1      0.0000
     4 C8      -2.9602   0.0442   0.4199   C.ar      1 1      0.0000
     5 C7      -3.4447   1.3414   0.3519   C.ar      1 1      0.0000
     6 C6      -4.7518   1.5913  -0.0314   C.ar      1 1      0.0000
     7 H4      -5.7789  -1.5745  -0.5427   H         1 1      0.0000
     8 C9      -1.5343  -0.2273   0.8346   C.3       1 1      0.0000
     9 H7      -2.7918   2.1711   0.6021   H         1 1      0.0000
    10 H6      -5.1162   2.6122  -0.0791   H         1 1      0.0000
    11 C10     -0.5725  -0.3202  -0.3483   C.3       1 1      0.0000
    12 H9A     -1.1996   0.5744   1.5045   H         1 1      0.0000
    13 C11      0.8788  -0.5928   0.0127   C.3       1 1      0.0000
    14 C12      1.8311   0.3596  -0.7021   C.3       1 1      0.0000
    15 H12A     1.6639   1.3786  -0.3316   H         1 1      0.0000
    16 C13      3.2722  -0.0010  -0.5055   C.2       1 1      0.0000
    17 C14      3.8984   0.3449   0.8121   C.3       1 1      0.0000
    18 H14B     4.7521  -0.3227   0.9823   H         1 1      0.0000
    19 H14A     3.1729   0.1657   1.6149   H         1 1      0.0000
    20 N        3.9496  -0.6151  -1.4548   N.pl3     1 1      0.0000
    21 HN       3.4217  -0.8942  -2.2816   H         1 1      0.0000
    22 C        5.3356  -1.0552  -1.3888   C.3       1 1      0.0000
    23 H1A      5.5340  -1.8185  -2.1383   H         1 1      0.0000
    24 H1C      6.0131  -0.2225  -1.5660   H         1 1      0.0000
    25 H1B      5.5623  -1.4736  -0.4105   H         1 1      0.0000
    26 H10A    -0.9193  -1.1211  -1.0129   H         1 1      0.0000
    27 H10B    -0.6188   0.6227  -0.9070   H         1 1      0.0000
    28 H9B     -1.5002  -1.1684   1.3972   H         1 1      0.0000
    29 H5      -6.6151   0.7415  -0.6526   H         1 1      0.0000
    30 H3      -3.4552  -2.0199   0.1381   H         1 1      0.0000
    31 H12B     1.6046   0.3534  -1.7754   H         1 1      0.0000
    32 C15      4.3790   1.7820   0.8932   C.3       1 1      0.0000
    33 H15A     3.5302   2.4554   0.7219   H         1 1      0.0000
    34 H15C     5.1137   1.9612   0.0985   H         1 1      0.0000
    35 OH       1.0424  -0.4457   1.4260   O.3       1 1      0.0000
    36 OH1      0.7052  -1.2550   1.8836   H         1 1      0.0000
    37 H22      1.1293  -1.6266  -0.2714   H         1 1      0.0000
    38 C16      5.0056   2.1049   2.2300   C.3       1 1      0.0000
    39 H16C     5.8656   1.4653   2.4173   H         1 1      0.0000
    40 H16A     5.3401   3.1398   2.2592   H         1 1      0.0000
    41 H16B     4.2909   1.9568   3.0368   H         1 1      0.0000
@<TRIPOS>BOND
     1     1     2   ar
     2     1     6   ar
     3     1    29    1
     4     2     3   ar
     5     2     7    1
     6     3     4   ar
     7     3    30    1
     8     4     5   ar
     9     4     8    1
    10     5     6   ar
    11     5     9    1
    12     6    10    1
    13     8    11    1
    14     8    12    1
    15     8    28    1
    16    11    13    1
    17    11    26    1
    18    11    27    1
    19    13    14    1
    20    14    15    1
    21    14    16    1
    22    14    31    1
    23    16    17    1
    24    16    20    2
    25    17    18    1
    26    17    19    1
    27    17    32    1
    28    20    21    1
    29    20    22    1
    30    22    23    1
    31    22    24    1
    32    22    25    1
    33    32    33    1
    34    32    34    1
    35    13    35    1
    36    35    36    1
    37    13    37    1
    38    32    38    1
    39    38    39    1
    40    38    40    1
    41    38    41    1
@<TRIPOS>SUBSTRUCTURE
     1 1           1 GROUP             0 ****  ****    0  
@<TRIPOS>MOLECULE
Molecule Name_00001_00173
    41    41     1     0     0
SMALL
NO_CHARGES
****
Generated from the CSD

@<TRIPOS>ATOM
     1 C5      -4.4474   1.3303  -0.2306   C.ar      1 1      0.0000
     2 C4      -3.3259   2.0287   0.1617   C.ar      1 1      0.0000
     3 C3      -2.0838   1.4165   0.1445   C.ar      1 1      0.0000
     4 C8      -1.9469   0.0992  -0.2655   C.ar      1 1      0.0000
     5 C7      -3.0837  -0.5916  -0.6562   C.ar      1 1      0.0000
     6 C6      -4.3262   0.0197  -0.6395   C.ar      1 1      0.0000
     7 H4      -3.4164   3.0606   0.4847   H         1 1      0.0000
     8 C9      -0.5932  -0.5688  -0.2809   C.3       1 1      0.0000
     9 H7      -2.9987  -1.6239  -0.9792   H         1 1      0.0000
    10 H6      -5.2063  -0.5343  -0.9489   H         1 1      0.0000
    11 C10     -0.2221  -1.2038   1.0577   C.3       1 1      0.0000
    12 H9A     -0.5875  -1.3437  -1.0574   H         1 1      0.0000
    13 C11      1.1186  -1.9197   1.0890   C.3       1 1      0.0000
    14 C12      2.2800  -0.9450   1.2496   C.3       1 1      0.0000
    15 H12A     3.1872  -1.5071   1.5038   H         1 1      0.0000
    16 C13      2.5369  -0.1363   0.0144   C.2       1 1      0.0000
    17 C14      2.1854   1.3206   0.0559   C.3       1 1      0.0000
    18 H14B     1.2395   1.4393   0.5986   H         1 1      0.0000
    19 H14A     2.0279   1.6833  -0.9672   H         1 1      0.0000
    20 N        3.0687  -0.6907  -1.0566   N.pl3     1 1      0.0000
    21 HN       3.3612  -1.6636  -0.9668   H         1 1      0.0000
    22 C        3.4047  -0.0231  -2.3058   C.3       1 1      0.0000
    23 H1A      4.3012  -0.4555  -2.7451   H         1 1      0.0000
    24 H1C      2.5942  -0.1206  -3.0250   H         1 1      0.0000
    25 H1B      3.5854   1.0370  -2.1412   H         1 1      0.0000
    26 H10A    -0.2112  -0.4168   1.8219   H         1 1      0.0000
    27 H10B    -1.0048  -1.9232   1.3284   H         1 1      0.0000
    28 H9B      0.1680   0.1753  -0.5463   H         1 1      0.0000
    29 H5      -5.4206   1.8097  -0.2176   H         1 1      0.0000
    30 H3      -1.2070   1.9747   0.4558   H         1 1      0.0000
    31 H12B     2.0641  -0.2653   2.0831   H         1 1      0.0000
    32 C15      3.2433   2.1779   0.7258   C.3       1 1      0.0000
    33 H15A     4.1929   2.0624   0.1890   H         1 1      0.0000
    34 H15C     3.3949   1.8249   1.7533   H         1 1      0.0000
    35 OH       1.1277  -2.8432   2.1812   O.3       1 1      0.0000
    36 OH1      0.3907  -3.4933   2.0703   H         1 1      0.0000
    37 H22      1.2482  -2.4763   0.1480   H         1 1      0.0000
    38 C16      2.8653   3.6408   0.7547   C.3       1 1      0.0000
    39 H16C     1.9360   3.7883   1.3009   H         1 1      0.0000
    40 H16A     3.6407   4.2300   1.2396   H         1 1      0.0000
    41 H16B     2.7297   4.0241  -0.2545   H         1 1      0.0000
@<TRIPOS>BOND
     1     1     2   ar
     2     1     6   ar
     3     1    29    1
     4     2     3   ar
     5     2     7    1
     6     3     4   ar
     7     3    30    1
     8     4     5   ar
     9     4     8    1
    10     5     6   ar
    11     5     9    1
    12     6    10    1
    13     8    11    1
    14     8    12    1
    15     8    28    1
    16    11    13    1
    17    11    26    1
    18    11    27    1
    19    13    14    1
    20    14    15    1
    21    14    16    1
    22    14    31    1
    23    16    17    1
    24    16    20    2
    25    17    18    1
    26    17    19    1
    27    17    32    1
    28    20    21    1
    29    20    22    1
    30    22    23    1
    31    22    24    1
    32    22    25    1
    33    32    33    1
    34    32    34    1
    35    13    35    1
    36    35    36    1
    37    13    37    1
    38    32    38    1
    39    38    39    1
    40    38    40    1
    41    38    41    1
@<TRIPOS>SUBSTRUCTURE
     1 1           1 GROUP             0 ****  ****    0  
@<TRIPOS>MOLECULE
Molecule Name_00001_00174
    41    41     1     0     0
SMALL
NO_CHARGES
****
Generated from the CSD

@<TRIPOS>ATOM
     1 C5      -4.8589   0.5078  -0.3464   C.ar      1 1      0.0000
     2 C4      -4.5936  -0.3535   0.6962   C.ar      1 1      0.0000
     3 C3      -3.3122  -0.4457   1.2134   C.ar      1 1      0.0000
     4 C8      -2.2805   0.3222   0.6957   C.ar      1 1      0.0000
     5 C7      -2.5616   1.1835  -0.3537   C.ar      1 1      0.0000
     6 C6      -3.8426   1.2763  -0.8716   C.ar      1 1      0.0000
     7 H4      -5.3904  -0.9608   1.1128   H         1 1      0.0000
     8 C9      -0.8831   0.2191   1.2576   C.3       1 1      0.0000
     9 H7      -1.7681   1.7922  -0.7745   H         1 1      0.0000
    10 H6      -4.0466   1.9556  -1.6927   H         1 1      0.0000
    11 C10     -0.0558  -0.8890   0.6090   C.3       1 1      0.0000
    12 H9A     -0.3701   1.1781   1.1142   H         1 1      0.0000
    13 C11      0.3322  -0.6478  -0.8409   C.3       1 1      0.0000
    14 C12      1.3934   0.4391  -0.9723   C.3       1 1      0.0000
    15 H12A     1.0303   1.3548  -0.4894   H         1 1      0.0000
    16 C13      2.7043   0.0506  -0.3591   C.2       1 1      0.0000
    17 C14      3.7440   1.1209  -0.2128   C.3       1 1      0.0000
    18 H14B     3.7272   1.7529  -1.1093   H         1 1      0.0000
    19 H14A     4.7355   0.6556  -0.1543   H         1 1      0.0000
    20 N        2.9186  -1.1841   0.0494   N.pl3     1 1      0.0000
    21 HN       2.1264  -1.8242  -0.0039   H         1 1      0.0000
    22 C        4.1225  -1.6912   0.6917   C.3       1 1      0.0000
    23 H1A      3.8748  -2.4515   1.4295   H         1 1      0.0000
    24 H1C      4.7922  -2.1360  -0.0413   H         1 1      0.0000
    25 H1B      4.6578  -0.8902   1.1970   H         1 1      0.0000
    26 H10A     0.8623  -1.0220   1.1946   H         1 1      0.0000
    27 H10B    -0.6266  -1.8242   0.6634   H         1 1      0.0000
    28 H9B     -0.9462   0.0324   2.3368   H         1 1      0.0000
    29 H5      -5.8628   0.5805  -0.7517   H         1 1      0.0000
    30 H3      -3.1133  -1.1272   2.0339   H         1 1      0.0000
    31 H12B     1.5482   0.6614  -2.0353   H         1 1      0.0000
    32 C15      3.5385   1.9993   1.0074   C.3       1 1      0.0000
    33 H15A     3.5522   1.3731   1.9079   H         1 1      0.0000
    34 H15C     2.5521   2.4754   0.9462   H         1 1      0.0000
    35 OH       0.8374  -1.8653  -1.3962   O.3       1 1      0.0000
    36 OH1      0.1447  -2.5685  -1.3356   H         1 1      0.0000
    37 H22     -0.5631  -0.3415  -1.4038   H         1 1      0.0000
    38 C16      4.5986   3.0691   1.1318   C.3       1 1      0.0000
    39 H16C     4.5936   3.7203   0.2601   H         1 1      0.0000
    40 H16A     4.4262   3.6822   2.0139   H         1 1      0.0000
    41 H16B     5.5877   2.6239   1.2165   H         1 1      0.0000
@<TRIPOS>BOND
     1     1     2   ar
     2     1     6   ar
     3     1    29    1
     4     2     3   ar
     5     2     7    1
     6     3     4   ar
     7     3    30    1
     8     4     5   ar
     9     4     8    1
    10     5     6   ar
    11     5     9    1
    12     6    10    1
    13     8    11    1
    14     8    12    1
    15     8    28    1
    16    11    13    1
    17    11    26    1
    18    11    27    1
    19    13    14    1
    20    14    15    1
    21    14    16    1
    22    14    31    1
    23    16    17    1
    24    16    20    2
    25    17    18    1
    26    17    19    1
    27    17    32    1
    28    20    21    1
    29    20    22    1
    30    22    23    1
    31    22    24    1
    32    22    25    1
    33    32    33    1
    34    32    34    1
    35    13    35    1
    36    35    36    1
    37    13    37    1
    38    32    38    1
    39    38    39    1
    40    38    40    1
    41    38    41    1
@<TRIPOS>SUBSTRUCTURE
     1 1           1 GROUP             0 ****  ****    0  
@<TRIPOS>MOLECULE
Molecule Name_00001_00175
    41    41     1     0     0
SMALL
NO_CHARGES
****
Generated from the CSD

@<TRIPOS>ATOM
     1 C5      -4.9620   0.7439  -0.0593   C.ar      1 1      0.0000
     2 C4      -4.7239  -0.5637  -0.4239   C.ar      1 1      0.0000
     3 C3      -3.4851  -1.1366  -0.1891   C.ar      1 1      0.0000
     4 C8      -2.4694  -0.4104   0.4135   C.ar      1 1      0.0000
     5 C7      -2.7227   0.9042   0.7738   C.ar      1 1      0.0000
     6 C6      -3.9611   1.4780   0.5395   C.ar      1 1      0.0000
     7 H4      -5.5086  -1.1455  -0.8959   H         1 1      0.0000
     8 C9      -1.1182  -1.0343   0.6662   C.3       1 1      0.0000
     9 H7      -1.9410   1.4906   1.2453   H         1 1      0.0000
    10 H6      -4.1438   2.5079   0.8280   H         1 1      0.0000
    11 C10     -0.1680  -0.9102  -0.5232   C.3       1 1      0.0000
    12 H9A     -0.6615  -0.5527   1.5396   H         1 1      0.0000
    13 C11      0.3185   0.4984  -0.8235   C.3       1 1      0.0000
    14 C12      1.3106   0.9926   0.2235   C.3       1 1      0.0000
    15 H12A     0.8485   0.9235   1.2160   H         1 1      0.0000
    16 C13      2.5911   0.2143   0.2259   C.2       1 1      0.0000
    17 C14      3.5406   0.4478   1.3625   C.3       1 1      0.0000
    18 H14B     4.1730  -0.4406   1.4812   H         1 1      0.0000
    19 H14A     2.9692   0.5738   2.2902   H         1 1      0.0000
    20 N        2.8551  -0.6535  -0.7305   N.pl3     1 1      0.0000
    21 HN       2.1149  -0.8164  -1.4130   H         1 1      0.0000
    22 C        4.0348  -1.4998  -0.8358   C.3       1 1      0.0000
    23 H1A      3.8991  -2.2563  -1.6058   H         1 1      0.0000
    24 H1C      4.9114  -0.9087  -1.0924   H         1 1      0.0000
    25 H1B      4.2324  -2.0067   0.1063   H         1 1      0.0000
    26 H10A     0.7068  -1.5446  -0.3338   H         1 1      0.0000
    27 H10B    -0.6766  -1.2979  -1.4145   H         1 1      0.0000
    28 H9B     -1.2553  -2.0963   0.9043   H         1 1      0.0000
    29 H5      -5.9325   1.1930  -0.2428   H         1 1      0.0000
    30 H3      -3.3073  -2.1666  -0.4804   H         1 1      0.0000
    31 H12B     1.5353   2.0493   0.0329   H         1 1      0.0000
    32 C15      4.4330   1.6591   1.1644   C.3       1 1      0.0000
    33 H15A     3.8066   2.5515   1.0430   H         1 1      0.0000
    34 H15C     5.0145   1.5309   0.2431   H         1 1      0.0000
    35 OH       0.9482   0.5094  -2.1077   O.3       1 1      0.0000
    36 OH1      0.3022   0.2125  -2.7950   H         1 1      0.0000
    37 H22     -0.5472   1.1785  -0.8430   H         1 1      0.0000
    38 C16      5.3797   1.8723   2.3229   C.3       1 1      0.0000
    39 H16C     6.0298   1.0097   2.4534   H         1 1      0.0000
    40 H16A     6.0057   2.7459   2.1536   H         1 1      0.0000
    41 H16B     4.8284   2.0245   3.2485   H         1 1      0.0000
@<TRIPOS>BOND
     1     1     2   ar
     2     1     6   ar
     3     1    29    1
     4     2     3   ar
     5     2     7    1
     6     3     4   ar
     7     3    30    1
     8     4     5   ar
     9     4     8    1
    10     5     6   ar
    11     5     9    1
    12     6    10    1
    13     8    11    1
    14     8    12    1
    15     8    28    1
    16    11    13    1
    17    11    26    1
    18    11    27    1
    19    13    14    1
    20    14    15    1
    21    14    16    1
    22    14    31    1
    23    16    17    1
    24    16    20    2
    25    17    18    1
    26    17    19    1
    27    17    32    1
    28    20    21    1
    29    20    22    1
    30    22    23    1
    31    22    24    1
    32    22    25    1
    33    32    33    1
    34    32    34    1
    35    13    35    1
    36    35    36    1
    37    13    37    1
    38    32    38    1
    39    38    39    1
    40    38    40    1
    41    38    41    1
@<TRIPOS>SUBSTRUCTURE
     1 1           1 GROUP             0 ****  ****    0  
@<TRIPOS>MOLECULE
Molecule Name_00001_00176
    41    41     1     0     0
SMALL
NO_CHARGES
****
Generated from the CSD

@<TRIPOS>ATOM
     1 C5      -4.9439   0.8922   0.1798   C.ar      1 1      0.0000
     2 C4      -4.2313   0.8965  -0.9998   C.ar      1 1      0.0000
     3 C3      -3.0741   0.1446  -1.1162   C.ar      1 1      0.0000
     4 C8      -2.6152  -0.6214  -0.0556   C.ar      1 1      0.0000
     5 C7      -3.3414  -0.6152   1.1254   C.ar      1 1      0.0000
     6 C6      -4.4987   0.1363   1.2427   C.ar      1 1      0.0000
     7 H4      -4.5776   1.4903  -1.8393   H         1 1      0.0000
     8 C9      -1.3520  -1.4382  -0.1817   C.3       1 1      0.0000
     9 H7      -2.9988  -1.2065   1.9681   H         1 1      0.0000
    10 H6      -5.0562   0.1300   2.1735   H         1 1      0.0000
    11 C10     -0.1320  -0.6019  -0.5629   C.3       1 1      0.0000
    12 H9A     -1.1560  -1.9406   0.7736   H         1 1      0.0000
    13 C11      0.3833   0.3296   0.5224   C.3       1 1      0.0000
    14 C12      1.6347   1.0802   0.0804   C.3       1 1      0.0000
    15 H12A     1.8390   1.8880   0.7940   H         1 1      0.0000
    16 C13      2.8410   0.1964  -0.0151   C.2       1 1      0.0000
    17 C14      4.1249   0.8246  -0.4676   C.3       1 1      0.0000
    18 H14B     3.9043   1.5352  -1.2737   H         1 1      0.0000
    19 H14A     4.7807   0.0485  -0.8807   H         1 1      0.0000
    20 N        2.7695  -1.0800   0.3062   N.pl3     1 1      0.0000
    21 HN       1.8817  -1.4025   0.6909   H         1 1      0.0000
    22 C        3.8619  -2.0420   0.2962   C.3       1 1      0.0000
    23 H1A      3.7487  -2.7625   1.1036   H         1 1      0.0000
    24 H1C      3.8857  -2.5883  -0.6444   H         1 1      0.0000
    25 H1B      4.8195  -1.5410   0.4208   H         1 1      0.0000
    26 H10A     0.6791  -1.2839  -0.8463   H         1 1      0.0000
    27 H10B    -0.3867   0.0005  -1.4435   H         1 1      0.0000
    28 H9B     -1.5043  -2.2144  -0.9419   H         1 1      0.0000
    29 H5      -5.8507   1.4809   0.2712   H         1 1      0.0000
    30 H3      -2.5198   0.1551  -2.0489   H         1 1      0.0000
    31 H12B     1.4496   1.5389  -0.8988   H         1 1      0.0000
    32 C15      4.8622   1.5556   0.6391   C.3       1 1      0.0000
    33 H15A     5.0843   0.8509   1.4499   H         1 1      0.0000
    34 H15C     4.2130   2.3404   1.0467   H         1 1      0.0000
    35 OH      -0.6393   1.2749   0.8486   O.3       1 1      0.0000
    36 OH1     -1.2298   0.8956   1.5454   H         1 1      0.0000
    37 H22      0.6219  -0.2639   1.4186   H         1 1      0.0000
    38 C16      6.1517   2.1792   0.1575   C.3       1 1      0.0000
    39 H16C     5.9593   2.9005  -0.6340   H         1 1      0.0000
    40 H16A     6.6578   2.6954   0.9707   H         1 1      0.0000
    41 H16B     6.8254   1.4193  -0.2329   H         1 1      0.0000
@<TRIPOS>BOND
     1     1     2   ar
     2     1     6   ar
     3     1    29    1
     4     2     3   ar
     5     2     7    1
     6     3     4   ar
     7     3    30    1
     8     4     5   ar
     9     4     8    1
    10     5     6   ar
    11     5     9    1
    12     6    10    1
    13     8    11    1
    14     8    12    1
    15     8    28    1
    16    11    13    1
    17    11    26    1
    18    11    27    1
    19    13    14    1
    20    14    15    1
    21    14    16    1
    22    14    31    1
    23    16    17    1
    24    16    20    2
    25    17    18    1
    26    17    19    1
    27    17    32    1
    28    20    21    1
    29    20    22    1
    30    22    23    1
    31    22    24    1
    32    22    25    1
    33    32    33    1
    34    32    34    1
    35    13    35    1
    36    35    36    1
    37    13    37    1
    38    32    38    1
    39    38    39    1
    40    38    40    1
    41    38    41    1
@<TRIPOS>SUBSTRUCTURE
     1 1           1 GROUP             0 ****  ****    0  
@<TRIPOS>MOLECULE
Molecule Name_00001_00177
    41    41     1     0     0
SMALL
NO_CHARGES
****
Generated from the CSD

@<TRIPOS>ATOM
     1 C5      -4.8997   0.8364   0.3315   C.ar      1 1      0.0000
     2 C4      -4.0851   1.3184  -0.6702   C.ar      1 1      0.0000
     3 C3      -2.9074   0.6614  -0.9857   C.ar      1 1      0.0000
     4 C8      -2.5297  -0.4856  -0.3046   C.ar      1 1      0.0000
     5 C7      -3.3582  -0.9584   0.7015   C.ar      1 1      0.0000
     6 C6      -4.5360  -0.3021   1.0177   C.ar      1 1      0.0000
     7 H4      -4.3670   2.2146  -1.2130   H         1 1      0.0000
     8 C9      -1.2444  -1.1996  -0.6466   C.3       1 1      0.0000
     9 H7      -3.0803  -1.8536   1.2479   H         1 1      0.0000
    10 H6      -5.1739  -0.6852   1.8074   H         1 1      0.0000
    11 C10     -0.0121  -0.3040  -0.5339   C.3       1 1      0.0000
    12 H9A     -1.1243  -2.0581   0.0257   H         1 1      0.0000
    13 C11      0.3860   0.0802   0.8820   C.3       1 1      0.0000
    14 C12      1.6566   0.9227   0.9066   C.3       1 1      0.0000
    15 H12A     1.7805   1.3554   1.9070   H         1 1      0.0000
    16 C13      2.8839   0.1360   0.5595   C.2       1 1      0.0000
    17 C14      4.1903   0.8709   0.5266   C.3       1 1      0.0000
    18 H14B     5.0023   0.1534   0.6977   H         1 1      0.0000
    19 H14A     4.2151   1.6002   1.3454   H         1 1      0.0000
    20 N        2.8093  -1.1564   0.3118   N.pl3     1 1      0.0000
    21 HN       1.8974  -1.5928   0.4462   H         1 1      0.0000
    22 C        3.9172  -2.0475  -0.0007   C.3       1 1      0.0000
    23 H1A      3.6425  -3.0839   0.1845   H         1 1      0.0000
    24 H1C      4.2033  -1.9546  -1.0463   H         1 1      0.0000
    25 H1B      4.7863  -1.8128   0.6101   H         1 1      0.0000
    26 H10A     0.8344  -0.8213  -1.0023   H         1 1      0.0000
    27 H10B    -0.1993   0.6154  -1.1023   H         1 1      0.0000
    28 H9B     -1.3130  -1.5851  -1.6713   H         1 1      0.0000
    29 H5      -5.8225   1.3507   0.5788   H         1 1      0.0000
    30 H3      -2.2727   1.0491  -1.7756   H         1 1      0.0000
    31 H12B     1.5505   1.7511   0.1954   H         1 1      0.0000
    32 C15      4.4444   1.5920  -0.7842   C.3       1 1      0.0000
    33 H15A     3.6346   2.3101  -0.9626   H         1 1      0.0000
    34 H15C     4.4318   0.8633  -1.6042   H         1 1      0.0000
    35 OH      -0.6802   0.8230   1.4798   O.3       1 1      0.0000
    36 OH1     -1.3011   0.2020   1.9347   H         1 1      0.0000
    37 H22      0.5554  -0.8372   1.4666   H         1 1      0.0000
    38 C16      5.7664   2.3241  -0.7917   C.3       1 1      0.0000
    39 H16C     6.5915   1.6318  -0.6384   H         1 1      0.0000
    40 H16A     5.9212   2.8309  -1.7419   H         1 1      0.0000
    41 H16B     5.7985   3.0703  -0.0005   H         1 1      0.0000
@<TRIPOS>BOND
     1     1     2   ar
     2     1     6   ar
     3     1    29    1
     4     2     3   ar
     5     2     7    1
     6     3     4   ar
     7     3    30    1
     8     4     5   ar
     9     4     8    1
    10     5     6   ar
    11     5     9    1
    12     6    10    1
    13     8    11    1
    14     8    12    1
    15     8    28    1
    16    11    13    1
    17    11    26    1
    18    11    27    1
    19    13    14    1
    20    14    15    1
    21    14    16    1
    22    14    31    1
    23    16    17    1
    24    16    20    2
    25    17    18    1
    26    17    19    1
    27    17    32    1
    28    20    21    1
    29    20    22    1
    30    22    23    1
    31    22    24    1
    32    22    25    1
    33    32    33    1
    34    32    34    1
    35    13    35    1
    36    35    36    1
    37    13    37    1
    38    32    38    1
    39    38    39    1
    40    38    40    1
    41    38    41    1
@<TRIPOS>SUBSTRUCTURE
     1 1           1 GROUP             0 ****  ****    0  
@<TRIPOS>MOLECULE
Molecule Name_00001_00178
    41    41     1     0     0
SMALL
NO_CHARGES
****
Generated from the CSD

@<TRIPOS>ATOM
     1 C5      -4.4522  -0.6226   0.6689   C.ar      1 1      0.0000
     2 C4      -3.5689  -0.7545   1.7185   C.ar      1 1      0.0000
     3 C3      -2.2482  -0.3651   1.5693   C.ar      1 1      0.0000
     4 C8      -1.7943   0.1616   0.3699   C.ar      1 1      0.0000
     5 C7      -2.6936   0.2875  -0.6777   C.ar      1 1      0.0000
     6 C6      -4.0144  -0.1016  -0.5295   C.ar      1 1      0.0000
     7 H4      -3.9088  -1.1644   2.6639   H         1 1      0.0000
     8 C9      -0.3539   0.5829   0.2067   C.3       1 1      0.0000
     9 H7      -2.3584   0.6959  -1.6254   H         1 1      0.0000
    10 H6      -4.7061   0.0039  -1.3588   H         1 1      0.0000
    11 C10     -0.0448   1.1384  -1.1822   C.3       1 1      0.0000
    12 H9A     -0.1195   1.3478   0.9573   H         1 1      0.0000
    13 C11      1.3809   1.6250  -1.3860   C.3       1 1      0.0000
    14 C12      2.3467   0.4703  -1.6281   C.3       1 1      0.0000
    15 H12A     3.3130   0.8738  -1.9550   H         1 1      0.0000
    16 C13      2.5583  -0.3773  -0.4106   C.2       1 1      0.0000
    17 C14      3.3317   0.2233   0.7247   C.3       1 1      0.0000
    18 H14B     4.0543   0.9413   0.3175   H         1 1      0.0000
    19 H14A     3.8995  -0.5660   1.2322   H         1 1      0.0000
    20 N        2.0634  -1.5971  -0.3434   N.pl3     1 1      0.0000
    21 HN       1.4735  -1.8915  -1.1215   H         1 1      0.0000
    22 C        2.1593  -2.5138   0.7834   C.3       1 1      0.0000
    23 H1A      1.2574  -3.1164   0.8681   H         1 1      0.0000
    24 H1C      3.0059  -3.1864   0.6619   H         1 1      0.0000
    25 H1B      2.2914  -1.9684   1.7154   H         1 1      0.0000
    26 H10A    -0.2510   0.3544  -1.9212   H         1 1      0.0000
    27 H10B    -0.7273   1.9740  -1.3805   H         1 1      0.0000
    28 H9B      0.2938  -0.2817   0.3976   H         1 1      0.0000
    29 H5      -5.4870  -0.9273   0.7855   H         1 1      0.0000
    30 H3      -1.5604  -0.4736   2.4014   H         1 1      0.0000
    31 H12B     1.9566  -0.1587  -2.4378   H         1 1      0.0000
    32 C15      2.4576   0.9339   1.7415   C.3       1 1      0.0000
    33 H15A     1.7215   0.2253   2.1407   H         1 1      0.0000
    34 H15C     1.9080   1.7412   1.2419   H         1 1      0.0000
    35 OH       1.4149   2.5079  -2.5108   O.3       1 1      0.0000
    36 OH1      0.8081   3.2720  -2.3496   H         1 1      0.0000
    37 H22      1.7019   2.1757  -0.4883   H         1 1      0.0000
    38 C16      3.2587   1.5128   2.8847   C.3       1 1      0.0000
    39 H16C     3.9840   2.2369   2.5197   H         1 1      0.0000
    40 H16A     2.6071   2.0150   3.5967   H         1 1      0.0000
    41 H16B     3.7982   0.7295   3.4131   H         1 1      0.0000
@<TRIPOS>BOND
     1     1     2   ar
     2     1     6   ar
     3     1    29    1
     4     2     3   ar
     5     2     7    1
     6     3     4   ar
     7     3    30    1
     8     4     5   ar
     9     4     8    1
    10     5     6   ar
    11     5     9    1
    12     6    10    1
    13     8    11    1
    14     8    12    1
    15     8    28    1
    16    11    13    1
    17    11    26    1
    18    11    27    1
    19    13    14    1
    20    14    15    1
    21    14    16    1
    22    14    31    1
    23    16    17    1
    24    16    20    2
    25    17    18    1
    26    17    19    1
    27    17    32    1
    28    20    21    1
    29    20    22    1
    30    22    23    1
    31    22    24    1
    32    22    25    1
    33    32    33    1
    34    32    34    1
    35    13    35    1
    36    35    36    1
    37    13    37    1
    38    32    38    1
    39    38    39    1
    40    38    40    1
    41    38    41    1
@<TRIPOS>SUBSTRUCTURE
     1 1           1 GROUP             0 ****  ****    0  
@<TRIPOS>MOLECULE
Molecule Name_00001_00179
    41    41     1     0     0
SMALL
NO_CHARGES
****
Generated from the CSD

@<TRIPOS>ATOM
     1 C5      -4.7629  -0.8504   0.3290   C.ar      1 1      0.0000
     2 C4      -3.9432  -1.0966   1.4092   C.ar      1 1      0.0000
     3 C3      -2.6343  -0.6441   1.4065   C.ar      1 1      0.0000
     4 C8      -2.1287   0.0607   0.3250   C.ar      1 1      0.0000
     5 C7      -2.9641   0.3000  -0.7552   C.ar      1 1      0.0000
     6 C6      -4.2732  -0.1520  -0.7536   C.ar      1 1      0.0000
     7 H4      -4.3242  -1.6463   2.2635   H         1 1      0.0000
     8 C9      -0.7009   0.5509   0.3212   C.3       1 1      0.0000
     9 H7      -2.5877   0.8484  -1.6125   H         1 1      0.0000
    10 H6      -4.9146   0.0440  -1.6064   H         1 1      0.0000
    11 C10     -0.3290   1.3055  -0.9537   C.3       1 1      0.0000
    12 H9A     -0.5489   1.2112   1.1839   H         1 1      0.0000
    13 C11      1.0835   1.8665  -0.9893   C.3       1 1      0.0000
    14 C12      2.1181   0.7842  -1.2772   C.3       1 1      0.0000
    15 H12A     3.0669   1.2600  -1.5545   H         1 1      0.0000
    16 C13      2.3509  -0.1248  -0.1088   C.2       1 1      0.0000
    17 C14      3.0372   0.4538   1.0920   C.3       1 1      0.0000
    18 H14B     2.7585  -0.1350   1.9746   H         1 1      0.0000
    19 H14A     2.6814   1.4789   1.2522   H         1 1      0.0000
    20 N        1.9475  -1.3793  -0.1391   N.pl3     1 1      0.0000
    21 HN       1.4087  -1.6636  -0.9570   H         1 1      0.0000
    22 C        2.0733  -2.3595   0.9298   C.3       1 1      0.0000
    23 H1A      1.3831  -3.1866   0.7777   H         1 1      0.0000
    24 H1C      3.0831  -2.7631   0.9655   H         1 1      0.0000
    25 H1B      1.8548  -1.9087   1.8955   H         1 1      0.0000
    26 H10A    -0.4519   0.6255  -1.8056   H         1 1      0.0000
    27 H10B    -1.0343   2.1357  -1.0829   H         1 1      0.0000
    28 H9B     -0.0290  -0.3086   0.4361   H         1 1      0.0000
    29 H5      -5.7885  -1.2045   0.3307   H         1 1      0.0000
    30 H3      -1.9968  -0.8436   2.2615   H         1 1      0.0000
    31 H12B     1.7818   0.1864  -2.1333   H         1 1      0.0000
    32 C15      4.5499   0.4695   0.9736   C.3       1 1      0.0000
    33 H15A     4.8357   1.0553   0.0913   H         1 1      0.0000
    34 H15C     4.9099  -0.5561   0.8248   H         1 1      0.0000
    35 OH       1.1602   2.8701  -2.0055   O.3       1 1      0.0000
    36 OH1      0.5076   3.5874  -1.8114   H         1 1      0.0000
    37 H22      1.3100   2.3255  -0.0145   H         1 1      0.0000
    38 C16      5.2171   1.0569   2.1957   C.3       1 1      0.0000
    39 H16C     4.9683   0.4815   3.0849   H         1 1      0.0000
    40 H16A     6.2992   1.0553   2.0827   H         1 1      0.0000
    41 H16B     4.8944   2.0837   2.3552   H         1 1      0.0000
@<TRIPOS>BOND
     1     1     2   ar
     2     1     6   ar
     3     1    29    1
     4     2     3   ar
     5     2     7    1
     6     3     4   ar
     7     3    30    1
     8     4     5   ar
     9     4     8    1
    10     5     6   ar
    11     5     9    1
    12     6    10    1
    13     8    11    1
    14     8    12    1
    15     8    28    1
    16    11    13    1
    17    11    26    1
    18    11    27    1
    19    13    14    1
    20    14    15    1
    21    14    16    1
    22    14    31    1
    23    16    17    1
    24    16    20    2
    25    17    18    1
    26    17    19    1
    27    17    32    1
    28    20    21    1
    29    20    22    1
    30    22    23    1
    31    22    24    1
    32    22    25    1
    33    32    33    1
    34    32    34    1
    35    13    35    1
    36    35    36    1
    37    13    37    1
    38    32    38    1
    39    38    39    1
    40    38    40    1
    41    38    41    1
@<TRIPOS>SUBSTRUCTURE
     1 1           1 GROUP             0 ****  ****    0  
@<TRIPOS>MOLECULE
Molecule Name_00001_00180
    41    41     1     0     0
SMALL
NO_CHARGES
****
Generated from the CSD

@<TRIPOS>ATOM
     1 C5      -5.5647   0.1134   0.6742   C.ar      1 1      0.0000
     2 C4      -4.5514   0.2794   1.5935   C.ar      1 1      0.0000
     3 C3      -3.2498   0.4805   1.1653   C.ar      1 1      0.0000
     4 C8      -2.9449   0.5190  -0.1866   C.ar      1 1      0.0000
     5 C7      -3.9739   0.3493  -1.1001   C.ar      1 1      0.0000
     6 C6      -5.2758   0.1481  -0.6729   C.ar      1 1      0.0000
     7 H4      -4.7739   0.2525   2.6551   H         1 1      0.0000
     8 C9      -1.5254   0.7350  -0.6529   C.3       1 1      0.0000
     9 H7      -3.7565   0.3744  -2.1628   H         1 1      0.0000
    10 H6      -6.0701   0.0175  -1.4004   H         1 1      0.0000
    11 C10     -0.5487  -0.3028  -0.1033   C.3       1 1      0.0000
    12 H9A     -1.5019   0.7019  -1.7492   H         1 1      0.0000
    13 C11      0.8969  -0.1325  -0.5418   C.3       1 1      0.0000
    14 C12      1.8747  -0.6254   0.5191   C.3       1 1      0.0000
    15 H12A     1.7327  -1.7035   0.6642   H         1 1      0.0000
    16 C13      3.3057  -0.3657   0.1581   C.2       1 1      0.0000
    17 C14      3.7989   1.0466   0.2574   C.3       1 1      0.0000
    18 H14B     3.0136   1.7203  -0.1071   H         1 1      0.0000
    19 H14A     4.6713   1.1712  -0.3957   H         1 1      0.0000
    20 N        4.0973  -1.3517  -0.2143   N.pl3     1 1      0.0000
    21 HN       3.7054  -2.2920  -0.1656   H         1 1      0.0000
    22 C        5.5087  -1.2521  -0.5565   C.3       1 1      0.0000
    23 H1A      6.0459  -2.1440  -0.2408   H         1 1      0.0000
    24 H1C      5.6377  -1.1416  -1.6312   H         1 1      0.0000
    25 H1B      5.9646  -0.3920  -0.0708   H         1 1      0.0000
    26 H10A    -0.5841  -0.2638   0.9924   H         1 1      0.0000
    27 H10B    -0.8896  -1.2980  -0.4146   H         1 1      0.0000
    28 H9B     -1.1967   1.7343  -0.3421   H         1 1      0.0000
    29 H5      -6.5846  -0.0439   1.0093   H         1 1      0.0000
    30 H3      -2.4590   0.6096   1.8969   H         1 1      0.0000
    31 H12B     1.6506  -0.1282   1.4709   H         1 1      0.0000
    32 C15      4.1769   1.4562   1.6689   C.3       1 1      0.0000
    33 H15A     4.9609   0.7849   2.0405   H         1 1      0.0000
    34 H15C     3.3030   1.3437   2.3224   H         1 1      0.0000
    35 OH       1.1064  -0.8684  -1.7503   O.3       1 1      0.0000
    36 OH1      0.4912  -0.5369  -2.4499   H         1 1      0.0000
    37 H22      1.0882   0.9346  -0.7343   H         1 1      0.0000
    38 C16      4.6704   2.8826   1.7418   C.3       1 1      0.0000
    39 H16C     3.9035   3.5741   1.3989   H         1 1      0.0000
    40 H16A     4.9336   3.1480   2.7636   H         1 1      0.0000
    41 H16B     5.5519   3.0181   1.1186   H         1 1      0.0000
@<TRIPOS>BOND
     1     1     2   ar
     2     1     6   ar
     3     1    29    1
     4     2     3   ar
     5     2     7    1
     6     3     4   ar
     7     3    30    1
     8     4     5   ar
     9     4     8    1
    10     5     6   ar
    11     5     9    1
    12     6    10    1
    13     8    11    1
    14     8    12    1
    15     8    28    1
    16    11    13    1
    17    11    26    1
    18    11    27    1
    19    13    14    1
    20    14    15    1
    21    14    16    1
    22    14    31    1
    23    16    17    1
    24    16    20    2
    25    17    18    1
    26    17    19    1
    27    17    32    1
    28    20    21    1
    29    20    22    1
    30    22    23    1
    31    22    24    1
    32    22    25    1
    33    32    33    1
    34    32    34    1
    35    13    35    1
    36    35    36    1
    37    13    37    1
    38    32    38    1
    39    38    39    1
    40    38    40    1
    41    38    41    1
@<TRIPOS>SUBSTRUCTURE
     1 1           1 GROUP             0 ****  ****    0  
@<TRIPOS>MOLECULE
Molecule Name_00001_00181
    41    41     1     0     0
SMALL
NO_CHARGES
****
Generated from the CSD

@<TRIPOS>ATOM
     1 C5      -5.5710  -0.0643   0.3163   C.ar      1 1      0.0000
     2 C4      -4.6567  -0.5664   1.2171   C.ar      1 1      0.0000
     3 C3      -3.3179  -0.2285   1.1106   C.ar      1 1      0.0000
     4 C8      -2.8763   0.6157   0.1034   C.ar      1 1      0.0000
     5 C7      -3.8069   1.1123  -0.7963   C.ar      1 1      0.0000
     6 C6      -5.1459   0.7751  -0.6907   C.ar      1 1      0.0000
     7 H4      -4.9865  -1.2278   2.0114   H         1 1      0.0000
     8 C9      -1.4164   0.9811  -0.0142   C.3       1 1      0.0000
     9 H7      -3.4821   1.7734  -1.5930   H         1 1      0.0000
    10 H6      -5.8620   1.1726  -1.4024   H         1 1      0.0000
    11 C10     -0.5025  -0.2351  -0.1515   C.3       1 1      0.0000
    12 H9A     -1.2810   1.6297  -0.8885   H         1 1      0.0000
    13 C11      0.9806   0.0757  -0.2736   C.3       1 1      0.0000
    14 C12      1.8442  -1.0285   0.3262   C.3       1 1      0.0000
    15 H12A     1.6472  -1.9670  -0.2066   H         1 1      0.0000
    16 C13      3.3100  -0.7252   0.2551   C.2       1 1      0.0000
    17 C14      3.8573   0.2758   1.2279   C.3       1 1      0.0000
    18 H14B     4.9007   0.0184   1.4483   H         1 1      0.0000
    19 H14A     3.2949   0.2111   2.1674   H         1 1      0.0000
    20 N        4.0833  -1.3342  -0.6215   N.pl3     1 1      0.0000
    21 HN       3.6464  -2.0661  -1.1815   H         1 1      0.0000
    22 C        5.5207  -1.1661  -0.7781   C.3       1 1      0.0000
    23 H1A      5.9486  -2.0000  -1.3306   H         1 1      0.0000
    24 H1C      5.7446  -0.2499  -1.3205   H         1 1      0.0000
    25 H1B      6.0118  -1.1140   0.1913   H         1 1      0.0000
    26 H10A    -0.6495  -0.8779   0.7252   H         1 1      0.0000
    27 H10B    -0.8114  -0.8019  -1.0385   H         1 1      0.0000
    28 H9B     -1.1195   1.5522   0.8741   H         1 1      0.0000
    29 H5      -6.6201  -0.3285   0.3996   H         1 1      0.0000
    30 H3      -2.6057  -0.6295   1.8243   H         1 1      0.0000
    31 H12B     1.5602  -1.1746   1.3757   H         1 1      0.0000
    32 C15      3.8041   1.7042   0.7184   C.3       1 1      0.0000
    33 H15A     2.7611   1.9736   0.5112   H         1 1      0.0000
    34 H15C     4.3604   1.7708  -0.2247   H         1 1      0.0000
    35 OH       1.3114   0.2300  -1.6566   O.3       1 1      0.0000
    36 OH1      0.7713   0.9613  -2.0458   H         1 1      0.0000
    37 H22      1.1922   1.0191   0.2530   H         1 1      0.0000
    38 C16      4.3833   2.6898   1.7067   C.3       1 1      0.0000
    39 H16C     5.4261   2.4595   1.9149   H         1 1      0.0000
    40 H16A     4.3318   3.7037   1.3154   H         1 1      0.0000
    41 H16B     3.8357   2.6609   2.6463   H         1 1      0.0000
@<TRIPOS>BOND
     1     1     2   ar
     2     1     6   ar
     3     1    29    1
     4     2     3   ar
     5     2     7    1
     6     3     4   ar
     7     3    30    1
     8     4     5   ar
     9     4     8    1
    10     5     6   ar
    11     5     9    1
    12     6    10    1
    13     8    11    1
    14     8    12    1
    15     8    28    1
    16    11    13    1
    17    11    26    1
    18    11    27    1
    19    13    14    1
    20    14    15    1
    21    14    16    1
    22    14    31    1
    23    16    17    1
    24    16    20    2
    25    17    18    1
    26    17    19    1
    27    17    32    1
    28    20    21    1
    29    20    22    1
    30    22    23    1
    31    22    24    1
    32    22    25    1
    33    32    33    1
    34    32    34    1
    35    13    35    1
    36    35    36    1
    37    13    37    1
    38    32    38    1
    39    38    39    1
    40    38    40    1
    41    38    41    1
@<TRIPOS>SUBSTRUCTURE
     1 1           1 GROUP             0 ****  ****    0  
@<TRIPOS>MOLECULE
Molecule Name_00001_00182
    41    41     1     0     0
SMALL
NO_CHARGES
****
Generated from the CSD

@<TRIPOS>ATOM
     1 C5      -5.4882   0.5013  -0.1549   C.ar      1 1      0.0000
     2 C4      -4.9797   0.4067   1.1225   C.ar      1 1      0.0000
     3 C3      -3.6111   0.3407   1.3232   C.ar      1 1      0.0000
     4 C8      -2.7337   0.3692   0.2502   C.ar      1 1      0.0000
     5 C7      -3.2592   0.4634  -1.0293   C.ar      1 1      0.0000
     6 C6      -4.6277   0.5295  -1.2311   C.ar      1 1      0.0000
     7 H4      -5.6533   0.3838   1.9729   H         1 1      0.0000
     8 C9      -1.2420   0.2940   0.4692   C.3       1 1      0.0000
     9 H7      -2.5900   0.4857  -1.8831   H         1 1      0.0000
    10 H6      -5.0233   0.6036  -2.2387   H         1 1      0.0000
    11 C10     -0.6066  -0.9498  -0.1491   C.3       1 1      0.0000
    12 H9A     -0.7732   1.1866   0.0369   H         1 1      0.0000
    13 C11      0.8963  -1.0763   0.0419   C.3       1 1      0.0000
    14 C12      1.6528   0.0638  -0.6307   C.3       1 1      0.0000
    15 H12A     1.3305   1.0161  -0.1916   H         1 1      0.0000
    16 C13      3.1395  -0.0604  -0.4896   C.2       1 1      0.0000
    17 C14      3.9319   1.2071  -0.3744   C.3       1 1      0.0000
    18 H14B     3.5095   1.9502  -1.0620   H         1 1      0.0000
    19 H14A     4.9657   1.0164  -0.6873   H         1 1      0.0000
    20 N        3.7171  -1.2446  -0.4514   N.pl3     1 1      0.0000
    21 HN       3.0954  -2.0531  -0.4438   H         1 1      0.0000
    22 C        5.1375  -1.5146  -0.2827   C.3       1 1      0.0000
    23 H1A      5.2913  -2.4233   0.2955   H         1 1      0.0000
    24 H1C      5.6230  -1.6411  -1.2482   H         1 1      0.0000
    25 H1B      5.6278  -0.6946   0.2377   H         1 1      0.0000
    26 H10A    -1.0858  -1.8351   0.2869   H         1 1      0.0000
    27 H10B    -0.8197  -0.9489  -1.2252   H         1 1      0.0000
    28 H9B     -1.0397   0.2997   1.5474   H         1 1      0.0000
    29 H5      -6.5604   0.5533  -0.3126   H         1 1      0.0000
    30 H3      -3.2206   0.2657   2.3328   H         1 1      0.0000
    31 H12B     1.3957   0.0840  -1.6969   H         1 1      0.0000
    32 C15      3.9401   1.7886   1.0273   C.3       1 1      0.0000
    33 H15A     4.3597   1.0495   1.7209   H         1 1      0.0000
    34 H15C     2.9079   1.9913   1.3389   H         1 1      0.0000
    35 OH       1.1896  -1.0717   1.4418   O.3       1 1      0.0000
    36 OH1      0.7204  -1.8239   1.8801   H         1 1      0.0000
    37 H22      1.2321  -2.0311  -0.3915   H         1 1      0.0000
    38 C16      4.7448   3.0646   1.1166   C.3       1 1      0.0000
    39 H16C     4.3371   3.8248   0.4536   H         1 1      0.0000
    40 H16A     4.7330   3.4578   2.1310   H         1 1      0.0000
    41 H16B     5.7804   2.8881   0.8335   H         1 1      0.0000
@<TRIPOS>BOND
     1     1     2   ar
     2     1     6   ar
     3     1    29    1
     4     2     3   ar
     5     2     7    1
     6     3     4   ar
     7     3    30    1
     8     4     5   ar
     9     4     8    1
    10     5     6   ar
    11     5     9    1
    12     6    10    1
    13     8    11    1
    14     8    12    1
    15     8    28    1
    16    11    13    1
    17    11    26    1
    18    11    27    1
    19    13    14    1
    20    14    15    1
    21    14    16    1
    22    14    31    1
    23    16    17    1
    24    16    20    2
    25    17    18    1
    26    17    19    1
    27    17    32    1
    28    20    21    1
    29    20    22    1
    30    22    23    1
    31    22    24    1
    32    22    25    1
    33    32    33    1
    34    32    34    1
    35    13    35    1
    36    35    36    1
    37    13    37    1
    38    32    38    1
    39    38    39    1
    40    38    40    1
    41    38    41    1
@<TRIPOS>SUBSTRUCTURE
     1 1           1 GROUP             0 ****  ****    0  
@<TRIPOS>MOLECULE
Molecule Name_00001_00183
    41    41     1     0     0
SMALL
NO_CHARGES
****
Generated from the CSD

@<TRIPOS>ATOM
     1 C5      -5.5016   0.6504  -0.2457   C.ar      1 1      0.0000
     2 C4      -5.1230   0.0520   0.9366   C.ar      1 1      0.0000
     3 C3      -3.7809  -0.1345   1.2232   C.ar      1 1      0.0000
     4 C8      -2.8008   0.2752   0.3324   C.ar      1 1      0.0000
     5 C7      -3.1962   0.8746  -0.8536   C.ar      1 1      0.0000
     6 C6      -4.5379   1.0616  -1.1411   C.ar      1 1      0.0000
     7 H4      -5.8780  -0.2737   1.6445   H         1 1      0.0000
     8 C9      -1.3382   0.0688   0.6438   C.3       1 1      0.0000
     9 H7      -2.4451   1.2012  -1.5652   H         1 1      0.0000
    10 H6      -4.8312   1.5328  -2.0734   H         1 1      0.0000
    11 C10     -0.6394  -0.8614  -0.3460   C.3       1 1      0.0000
    12 H9A     -0.8320   1.0420   0.6373   H         1 1      0.0000
    13 C11      0.8373  -1.1046  -0.0792   C.3       1 1      0.0000
    14 C12      1.6529   0.1794  -0.1831   C.3       1 1      0.0000
    15 H12A     1.2846   0.8990   0.5585   H         1 1      0.0000
    16 C13      3.1185  -0.0419   0.0373   C.2       1 1      0.0000
    17 C14      3.8905   1.0541   0.7085   C.3       1 1      0.0000
    18 H14B     4.7777   0.6190   1.1849   H         1 1      0.0000
    19 H14A     3.2739   1.4977   1.4998   H         1 1      0.0000
    20 N        3.6939  -1.1686  -0.3327   N.pl3     1 1      0.0000
    21 HN       3.0778  -1.8950  -0.6973   H         1 1      0.0000
    22 C        5.0914  -1.5326  -0.1497   C.3       1 1      0.0000
    23 H1A      5.2256  -2.6080  -0.2459   H         1 1      0.0000
    24 H1C      5.7172  -1.0452  -0.8943   H         1 1      0.0000
    25 H1B      5.4429  -1.2340   0.8356   H         1 1      0.0000
    26 H10A    -1.1563  -1.8289  -0.3343   H         1 1      0.0000
    27 H10B    -0.7439  -0.4375  -1.3524   H         1 1      0.0000
    28 H9B     -1.2447  -0.3494   1.6536   H         1 1      0.0000
    29 H5      -6.5529   0.7969  -0.4705   H         1 1      0.0000
    30 H3      -3.4931  -0.6071   2.1565   H         1 1      0.0000
    31 H12B     1.5036   0.6187  -1.1771   H         1 1      0.0000
    32 C15      4.3351   2.1494  -0.2430   C.3       1 1      0.0000
    33 H15A     3.4523   2.5878  -0.7246   H         1 1      0.0000
    34 H15C     4.9617   1.7107  -1.0292   H         1 1      0.0000
    35 OH       0.9892  -1.6512   1.2338   O.3       1 1      0.0000
    36 OH1      0.4815  -2.4973   1.3002   H         1 1      0.0000
    37 H22      1.2184  -1.8293  -0.8154   H         1 1      0.0000
    38 C16      5.1104   3.2410   0.4578   C.3       1 1      0.0000
    39 H16C     6.0052   2.8379   0.9274   H         1 1      0.0000
    40 H16A     5.4155   4.0111  -0.2477   H         1 1      0.0000
    41 H16B     4.5042   3.7098   1.2301   H         1 1      0.0000
@<TRIPOS>BOND
     1     1     2   ar
     2     1     6   ar
     3     1    29    1
     4     2     3   ar
     5     2     7    1
     6     3     4   ar
     7     3    30    1
     8     4     5   ar
     9     4     8    1
    10     5     6   ar
    11     5     9    1
    12     6    10    1
    13     8    11    1
    14     8    12    1
    15     8    28    1
    16    11    13    1
    17    11    26    1
    18    11    27    1
    19    13    14    1
    20    14    15    1
    21    14    16    1
    22    14    31    1
    23    16    17    1
    24    16    20    2
    25    17    18    1
    26    17    19    1
    27    17    32    1
    28    20    21    1
    29    20    22    1
    30    22    23    1
    31    22    24    1
    32    22    25    1
    33    32    33    1
    34    32    34    1
    35    13    35    1
    36    35    36    1
    37    13    37    1
    38    32    38    1
    39    38    39    1
    40    38    40    1
    41    38    41    1
@<TRIPOS>SUBSTRUCTURE
     1 1           1 GROUP             0 ****  ****    0  
@<TRIPOS>MOLECULE
Molecule Name_00001_00184
    41    41     1     0     0
SMALL
NO_CHARGES
****
Generated from the CSD

@<TRIPOS>ATOM
     1 C5      -4.4101  -1.0050   0.9884   C.ar      1 1      0.0000
     2 C4      -3.4369  -0.6120   1.8816   C.ar      1 1      0.0000
     3 C3      -2.3818   0.1785   1.4575   C.ar      1 1      0.0000
     4 C8      -2.2866   0.5867   0.1360   C.ar      1 1      0.0000
     5 C7      -3.2720   0.1829  -0.7518   C.ar      1 1      0.0000
     6 C6      -4.3275  -0.6076  -0.3287   C.ar      1 1      0.0000
     7 H4      -3.4975  -0.9227   2.9194   H         1 1      0.0000
     8 C9      -1.1347   1.4457  -0.3266   C.3       1 1      0.0000
     9 H7      -3.2155   0.4900  -1.7909   H         1 1      0.0000
    10 H6      -5.0910  -0.9148  -1.0357   H         1 1      0.0000
    11 C10      0.0892   0.6335  -0.7454   C.3       1 1      0.0000
    12 H9A     -1.4649   2.0570  -1.1755   H         1 1      0.0000
    13 C11      1.2805   1.4496  -1.2207   C.3       1 1      0.0000
    14 C12      2.4617   0.5635  -1.6003   C.3       1 1      0.0000
    15 H12A     3.2484   1.1856  -2.0448   H         1 1      0.0000
    16 C13      3.0307  -0.1814  -0.4311   C.2       1 1      0.0000
    17 C14      3.8587   0.5957   0.5478   C.3       1 1      0.0000
    18 H14B     4.3931   1.3866   0.0071   H         1 1      0.0000
    19 H14A     4.6106  -0.0681   0.9917   H         1 1      0.0000
    20 N        2.7913  -1.4674  -0.2691   N.pl3     1 1      0.0000
    21 HN       2.1440  -1.8959  -0.9307   H         1 1      0.0000
    22 C        3.2459  -2.3050   0.8313   C.3       1 1      0.0000
    23 H1A      2.4054  -2.8052   1.3078   H         1 1      0.0000
    24 H1C      3.9363  -3.0670   0.4758   H         1 1      0.0000
    25 H1B      3.7575  -1.7097   1.5845   H         1 1      0.0000
    26 H10A     0.4075   0.0234   0.1089   H         1 1      0.0000
    27 H10B    -0.2072  -0.0481  -1.5523   H         1 1      0.0000
    28 H9B     -0.8503   2.1270   0.4848   H         1 1      0.0000
    29 H5      -5.2369  -1.6241   1.3203   H         1 1      0.0000
    30 H3      -1.6204   0.4822   2.1683   H         1 1      0.0000
    31 H12B     2.1379  -0.1583  -2.3603   H         1 1      0.0000
    32 C15      3.0428   1.2297   1.6591   C.3       1 1      0.0000
    33 H15A     2.2843   1.8881   1.2179   H         1 1      0.0000
    34 H15C     3.7014   1.8483   2.2811   H         1 1      0.0000
    35 OH       0.8903   2.2231  -2.3588   O.3       1 1      0.0000
    36 OH1      0.1429   2.8215  -2.1111   H         1 1      0.0000
    37 H22      1.5912   2.1310  -0.4137   H         1 1      0.0000
    38 C16      2.3597   0.2013   2.5305   C.3       1 1      0.0000
    39 H16C     3.0919  -0.3830   3.0838   H         1 1      0.0000
    40 H16A     1.6977   0.6819   3.2478   H         1 1      0.0000
    41 H16B     1.7663  -0.4826   1.9271   H         1 1      0.0000
@<TRIPOS>BOND
     1     1     2   ar
     2     1     6   ar
     3     1    29    1
     4     2     3   ar
     5     2     7    1
     6     3     4   ar
     7     3    30    1
     8     4     5   ar
     9     4     8    1
    10     5     6   ar
    11     5     9    1
    12     6    10    1
    13     8    11    1
    14     8    12    1
    15     8    28    1
    16    11    13    1
    17    11    26    1
    18    11    27    1
    19    13    14    1
    20    14    15    1
    21    14    16    1
    22    14    31    1
    23    16    17    1
    24    16    20    2
    25    17    18    1
    26    17    19    1
    27    17    32    1
    28    20    21    1
    29    20    22    1
    30    22    23    1
    31    22    24    1
    32    22    25    1
    33    32    33    1
    34    32    34    1
    35    13    35    1
    36    35    36    1
    37    13    37    1
    38    32    38    1
    39    38    39    1
    40    38    40    1
    41    38    41    1
@<TRIPOS>SUBSTRUCTURE
     1 1           1 GROUP             0 ****  ****    0  
@<TRIPOS>MOLECULE
Molecule Name_00001_00185
    41    41     1     0     0
SMALL
NO_CHARGES
****
Generated from the CSD

@<TRIPOS>ATOM
     1 C5      -4.8264  -1.3021   0.3048   C.ar      1 1      0.0000
     2 C4      -3.9724  -1.1497   1.3757   C.ar      1 1      0.0000
     3 C3      -2.9129  -0.2610   1.2994   C.ar      1 1      0.0000
     4 C8      -2.6944   0.4868   0.1526   C.ar      1 1      0.0000
     5 C7      -3.5607   0.3223  -0.9173   C.ar      1 1      0.0000
     6 C6      -4.6204  -0.5661  -0.8420   C.ar      1 1      0.0000
     7 H4      -4.1303  -1.7272   2.2805   H         1 1      0.0000
     8 C9      -1.5376   1.4530   0.0686   C.3       1 1      0.0000
     9 H7      -3.4065   0.8968  -1.8247   H         1 1      0.0000
    10 H6      -5.2899  -0.6829  -1.6878   H         1 1      0.0000
    11 C10     -0.2420   0.7982  -0.4066   C.3       1 1      0.0000
    12 H9A     -1.8009   2.2647  -0.6207   H         1 1      0.0000
    13 C11      0.9570   1.7270  -0.5095   C.3       1 1      0.0000
    14 C12      2.2092   0.9899  -0.9715   C.3       1 1      0.0000
    15 H12A     2.9885   1.7233  -1.2126   H         1 1      0.0000
    16 C13      2.7373   0.0369   0.0573   C.2       1 1      0.0000
    17 C14      3.3985   0.6230   1.2685   C.3       1 1      0.0000
    18 H14B     3.3345  -0.1015   2.0898   H         1 1      0.0000
    19 H14A     2.8530   1.5229   1.5778   H         1 1      0.0000
    20 N        2.6043  -1.2653  -0.0978   N.pl3     1 1      0.0000
    21 HN       2.0615  -1.5736  -0.9044   H         1 1      0.0000
    22 C        3.0337  -2.3003   0.8314   C.3       1 1      0.0000
    23 H1A      2.5372  -3.2437   0.6140   H         1 1      0.0000
    24 H1C      4.1078  -2.4589   0.7619   H         1 1      0.0000
    25 H1B      2.7984  -2.0216   1.8563   H         1 1      0.0000
    26 H10A     0.0088  -0.0140   0.2869   H         1 1      0.0000
    27 H10B    -0.4207   0.3533  -1.3933   H         1 1      0.0000
    28 H9B     -1.3713   1.8962   1.0582   H         1 1      0.0000
    29 H5      -5.6567  -1.9981   0.3643   H         1 1      0.0000
    30 H3      -2.2458  -0.1486   2.1476   H         1 1      0.0000
    31 H12B     1.9792   0.4337  -1.8887   H         1 1      0.0000
    32 C15      4.8562   0.9815   1.0465   C.3       1 1      0.0000
    33 H15A     5.2375   1.5029   1.9331   H         1 1      0.0000
    34 H15C     4.9319   1.6697   0.1956   H         1 1      0.0000
    35 OH       0.6582   2.7714  -1.4399   O.3       1 1      0.0000
    36 OH1     -0.1372   3.2714  -1.1310   H         1 1      0.0000
    37 H22      1.1499   2.1719   0.4789   H         1 1      0.0000
    38 C16      5.7137  -0.2337   0.7793   C.3       1 1      0.0000
    39 H16C     5.3712  -0.7597  -0.1094   H         1 1      0.0000
    40 H16A     6.7517   0.0532   0.6243   H         1 1      0.0000
    41 H16B     5.6749  -0.9252   1.6184   H         1 1      0.0000
@<TRIPOS>BOND
     1     1     2   ar
     2     1     6   ar
     3     1    29    1
     4     2     3   ar
     5     2     7    1
     6     3     4   ar
     7     3    30    1
     8     4     5   ar
     9     4     8    1
    10     5     6   ar
    11     5     9    1
    12     6    10    1
    13     8    11    1
    14     8    12    1
    15     8    28    1
    16    11    13    1
    17    11    26    1
    18    11    27    1
    19    13    14    1
    20    14    15    1
    21    14    16    1
    22    14    31    1
    23    16    17    1
    24    16    20    2
    25    17    18    1
    26    17    19    1
    27    17    32    1
    28    20    21    1
    29    20    22    1
    30    22    23    1
    31    22    24    1
    32    22    25    1
    33    32    33    1
    34    32    34    1
    35    13    35    1
    36    35    36    1
    37    13    37    1
    38    32    38    1
    39    38    39    1
    40    38    40    1
    41    38    41    1
@<TRIPOS>SUBSTRUCTURE
     1 1           1 GROUP             0 ****  ****    0  
@<TRIPOS>MOLECULE
Molecule Name_00001_00186
    41    41     1     0     0
SMALL
NO_CHARGES
****
Generated from the CSD

@<TRIPOS>ATOM
     1 C5      -4.8561  -1.2187  -0.1106   C.ar      1 1      0.0000
     2 C4      -3.9941  -1.4552   0.9384   C.ar      1 1      0.0000
     3 C3      -2.8970  -0.6334   1.1360   C.ar      1 1      0.0000
     4 C8      -2.6482   0.4351   0.2884   C.ar      1 1      0.0000
     5 C7      -3.5228   0.6604  -0.7634   C.ar      1 1      0.0000
     6 C6      -4.6202  -0.1608  -0.9618   C.ar      1 1      0.0000
     7 H4      -4.1754  -2.2870   1.6110   H         1 1      0.0000
     8 C9      -1.4504   1.3286   0.5022   C.3       1 1      0.0000
     9 H7      -3.3454   1.4903  -1.4394   H         1 1      0.0000
    10 H6      -5.2958   0.0292  -1.7893   H         1 1      0.0000
    11 C10     -0.1856   0.8102  -0.1793   C.3       1 1      0.0000
    12 H9A     -1.6793   2.3295   0.1159   H         1 1      0.0000
    13 C11      1.0527   1.6728   0.0038   C.3       1 1      0.0000
    14 C12      2.2706   1.0740  -0.6912   C.3       1 1      0.0000
    15 H12A     3.0808   1.8136  -0.6951   H         1 1      0.0000
    16 C13      2.7585  -0.1809  -0.0332   C.2       1 1      0.0000
    17 C14      3.4388  -0.0457   1.2959   C.3       1 1      0.0000
    18 H14B     3.3053  -0.9793   1.8563   H         1 1      0.0000
    19 H14A     2.9566   0.7559   1.8685   H         1 1      0.0000
    20 N        2.5753  -1.3559  -0.6018   N.pl3     1 1      0.0000
    21 HN       2.0231  -1.3645  -1.4592   H         1 1      0.0000
    22 C        2.9617  -2.6522  -0.0638   C.3       1 1      0.0000
    23 H1A      2.3878  -3.4500  -0.5305   H         1 1      0.0000
    24 H1C      4.0174  -2.8447  -0.2432   H         1 1      0.0000
    25 H1B      2.7879  -2.6928   1.0094   H         1 1      0.0000
    26 H10A     0.0308  -0.1919   0.2111   H         1 1      0.0000
    27 H10B    -0.3854   0.7155  -1.2538   H         1 1      0.0000
    28 H9B     -1.2631   1.4214   1.5792   H         1 1      0.0000
    29 H5      -5.7158  -1.8621  -0.2656   H         1 1      0.0000
    30 H3      -2.2240  -0.8283   1.9644   H         1 1      0.0000
    31 H12B     2.0148   0.8538  -1.7349   H         1 1      0.0000
    32 C15      4.9232   0.2500   1.1870   C.3       1 1      0.0000
    33 H15A     5.3986  -0.5189   0.5656   H         1 1      0.0000
    34 H15C     5.3745   0.1991   2.1855   H         1 1      0.0000
    35 OH       0.7980   2.9730  -0.5351   O.3       1 1      0.0000
    36 OH1      0.0259   3.3785  -0.0688   H         1 1      0.0000
    37 H22      1.2667   1.7663   1.0797   H         1 1      0.0000
    38 C16      5.1968   1.6101   0.5878   C.3       1 1      0.0000
    39 H16C     4.5266   2.3579   1.0066   H         1 1      0.0000
    40 H16A     6.2198   1.9213   0.7887   H         1 1      0.0000
    41 H16B     5.0534   1.5924  -0.4906   H         1 1      0.0000
@<TRIPOS>BOND
     1     1     2   ar
     2     1     6   ar
     3     1    29    1
     4     2     3   ar
     5     2     7    1
     6     3     4   ar
     7     3    30    1
     8     4     5   ar
     9     4     8    1
    10     5     6   ar
    11     5     9    1
    12     6    10    1
    13     8    11    1
    14     8    12    1
    15     8    28    1
    16    11    13    1
    17    11    26    1
    18    11    27    1
    19    13    14    1
    20    14    15    1
    21    14    16    1
    22    14    31    1
    23    16    17    1
    24    16    20    2
    25    17    18    1
    26    17    19    1
    27    17    32    1
    28    20    21    1
    29    20    22    1
    30    22    23    1
    31    22    24    1
    32    22    25    1
    33    32    33    1
    34    32    34    1
    35    13    35    1
    36    35    36    1
    37    13    37    1
    38    32    38    1
    39    38    39    1
    40    38    40    1
    41    38    41    1
@<TRIPOS>SUBSTRUCTURE
     1 1           1 GROUP             0 ****  ****    0  
@<TRIPOS>MOLECULE
Molecule Name_00001_00187
    41    41     1     0     0
SMALL
NO_CHARGES
****
Generated from the CSD

@<TRIPOS>ATOM
     1 C5      -4.5626   1.3855  -0.7403   C.ar      1 1      0.0000
     2 C4      -3.8377   0.5726  -1.5847   C.ar      1 1      0.0000
     3 C3      -2.8153  -0.2156  -1.0834   C.ar      1 1      0.0000
     4 C8      -2.5053  -0.2020   0.2678   C.ar      1 1      0.0000
     5 C7      -3.2419   0.6213   1.1054   C.ar      1 1      0.0000
     6 C6      -4.2645   1.4099   0.6051   C.ar      1 1      0.0000
     7 H4      -4.0684   0.5502  -2.6447   H         1 1      0.0000
     8 C9      -1.3886  -1.0590   0.8133   C.3       1 1      0.0000
     9 H7      -3.0145   0.6481   2.1659   H         1 1      0.0000
    10 H6      -4.8323   2.0485   1.2738   H         1 1      0.0000
    11 C10     -0.0221  -0.3800   0.7434   C.3       1 1      0.0000
    12 H9A     -1.6098  -1.3092   1.8582   H         1 1      0.0000
    13 C11      1.1401  -1.1997   1.2804   C.3       1 1      0.0000
    14 C12      2.4472  -0.4149   1.2589   C.3       1 1      0.0000
    15 H12A     3.2100  -0.9738   1.8150   H         1 1      0.0000
    16 C13      2.9478  -0.1547  -0.1293   C.2       1 1      0.0000
    17 C14      2.4370   1.0678  -0.8311   C.3       1 1      0.0000
    18 H14B     1.3971   1.2396  -0.5271   H         1 1      0.0000
    19 H14A     2.4405   0.8906  -1.9136   H         1 1      0.0000
    20 N        3.8180  -0.9664  -0.6961   N.pl3     1 1      0.0000
    21 HN       4.1812  -1.7210  -0.1140   H         1 1      0.0000
    22 C        4.4140  -0.8185  -2.0159   C.3       1 1      0.0000
    23 H1A      5.4406  -1.1788  -2.0180   H         1 1      0.0000
    24 H1C      3.8544  -1.3854  -2.7570   H         1 1      0.0000
    25 H1B      4.4204   0.2253  -2.3224   H         1 1      0.0000
    26 H10A     0.1862  -0.1306  -0.3043   H         1 1      0.0000
    27 H10B    -0.0730   0.5592   1.3079   H         1 1      0.0000
    28 H9B     -1.3504  -1.9973   0.2463   H         1 1      0.0000
    29 H5      -5.3639   2.0030  -1.1326   H         1 1      0.0000
    30 H3      -2.2500  -0.8518  -1.7565   H         1 1      0.0000
    31 H12B     2.2972   0.5440   1.7701   H         1 1      0.0000
    32 C15      3.2453   2.3170  -0.5331   C.3       1 1      0.0000
    33 H15A     2.8931   3.1348  -1.1738   H         1 1      0.0000
    34 H15C     4.2985   2.1309  -0.7772   H         1 1      0.0000
    35 OH       0.8511  -1.5918   2.6252   O.3       1 1      0.0000
    36 OH1      0.0653  -2.1922   2.6326   H         1 1      0.0000
    37 H22      1.2565  -2.1025   0.6610   H         1 1      0.0000
    38 C16      3.1388   2.7401   0.9137   C.3       1 1      0.0000
    39 H16C     3.6254   2.0162   1.5641   H         1 1      0.0000
    40 H16A     3.6127   3.7071   1.0687   H         1 1      0.0000
    41 H16B     2.0968   2.8208   1.2162   H         1 1      0.0000
@<TRIPOS>BOND
     1     1     2   ar
     2     1     6   ar
     3     1    29    1
     4     2     3   ar
     5     2     7    1
     6     3     4   ar
     7     3    30    1
     8     4     5   ar
     9     4     8    1
    10     5     6   ar
    11     5     9    1
    12     6    10    1
    13     8    11    1
    14     8    12    1
    15     8    28    1
    16    11    13    1
    17    11    26    1
    18    11    27    1
    19    13    14    1
    20    14    15    1
    21    14    16    1
    22    14    31    1
    23    16    17    1
    24    16    20    2
    25    17    18    1
    26    17    19    1
    27    17    32    1
    28    20    21    1
    29    20    22    1
    30    22    23    1
    31    22    24    1
    32    22    25    1
    33    32    33    1
    34    32    34    1
    35    13    35    1
    36    35    36    1
    37    13    37    1
    38    32    38    1
    39    38    39    1
    40    38    40    1
    41    38    41    1
@<TRIPOS>SUBSTRUCTURE
     1 1           1 GROUP             0 ****  ****    0  
@<TRIPOS>MOLECULE
Molecule Name_00001_00188
    41    41     1     0     0
SMALL
NO_CHARGES
****
Generated from the CSD

@<TRIPOS>ATOM
     1 C5      -4.6225   1.3835  -0.8336   C.ar      1 1      0.0000
     2 C4      -3.8463   0.6110  -1.6703   C.ar      1 1      0.0000
     3 C3      -2.8400  -0.1844  -1.1481   C.ar      1 1      0.0000
     4 C8      -2.5975  -0.2182   0.2165   C.ar      1 1      0.0000
     5 C7      -3.3852   0.5649   1.0461   C.ar      1 1      0.0000
     6 C6      -4.3918   1.3606   0.5249   C.ar      1 1      0.0000
     7 H4      -4.0240   0.6260  -2.7406   H         1 1      0.0000
     8 C9      -1.4983  -1.0828   0.7850   C.3       1 1      0.0000
     9 H7      -3.2110   0.5542   2.1170   H         1 1      0.0000
    10 H6      -5.0001   1.9673   1.1876   H         1 1      0.0000
    11 C10     -0.1389  -0.3868   0.8087   C.3       1 1      0.0000
    12 H9A     -1.7678  -1.3746   1.8076   H         1 1      0.0000
    13 C11      1.0058  -1.2134   1.3723   C.3       1 1      0.0000
    14 C12      2.2999  -0.4113   1.4541   C.3       1 1      0.0000
    15 H12A     3.0397  -0.9822   2.0287   H         1 1      0.0000
    16 C13      2.8713  -0.0883   0.1070   C.2       1 1      0.0000
    17 C14      2.3864   1.1589  -0.5693   C.3       1 1      0.0000
    18 H14B     1.3151   1.2766  -0.3646   H         1 1      0.0000
    19 H14A     2.5062   1.0512  -1.6542   H         1 1      0.0000
    20 N        3.7787  -0.8683  -0.4457   N.pl3     1 1      0.0000
    21 HN       4.1179  -1.6441   0.1228   H         1 1      0.0000
    22 C        4.4428  -0.6597  -1.7241   C.3       1 1      0.0000
    23 H1A      5.5079  -0.8669  -1.6438   H         1 1      0.0000
    24 H1C      4.0267  -1.3154  -2.4861   H         1 1      0.0000
    25 H1B      4.3219   0.3682  -2.0595   H         1 1      0.0000
    26 H10A     0.1178  -0.0959  -0.2174   H         1 1      0.0000
    27 H10B    -0.2296   0.5299   1.4043   H         1 1      0.0000
    28 H9B     -1.4201  -1.9987   0.1863   H         1 1      0.0000
    29 H5      -5.4112   2.0065  -1.2423   H         1 1      0.0000
    30 H3      -2.2340  -0.7885  -1.8152   H         1 1      0.0000
    31 H12B     2.1075   0.5241   1.9941   H         1 1      0.0000
    32 C15      3.1107   2.4125  -0.1150   C.3       1 1      0.0000
    33 H15A     3.0201   2.5057   0.9743   H         1 1      0.0000
    34 H15C     2.6304   3.2893  -0.5667   H         1 1      0.0000
    35 OH       0.6518  -1.6665   2.6819   O.3       1 1      0.0000
    36 OH1     -0.0906  -2.3166   2.6172   H         1 1      0.0000
    37 H22      1.1688  -2.0872   0.7226   H         1 1      0.0000
    38 C16      4.5743   2.4000  -0.4911   C.3       1 1      0.0000
    39 H16C     4.6947   2.3301  -1.5701   H         1 1      0.0000
    40 H16A     5.0672   3.3093  -0.1532   H         1 1      0.0000
    41 H16B     5.0818   1.5510  -0.0378   H         1 1      0.0000
@<TRIPOS>BOND
     1     1     2   ar
     2     1     6   ar
     3     1    29    1
     4     2     3   ar
     5     2     7    1
     6     3     4   ar
     7     3    30    1
     8     4     5   ar
     9     4     8    1
    10     5     6   ar
    11     5     9    1
    12     6    10    1
    13     8    11    1
    14     8    12    1
    15     8    28    1
    16    11    13    1
    17    11    26    1
    18    11    27    1
    19    13    14    1
    20    14    15    1
    21    14    16    1
    22    14    31    1
    23    16    17    1
    24    16    20    2
    25    17    18    1
    26    17    19    1
    27    17    32    1
    28    20    21    1
    29    20    22    1
    30    22    23    1
    31    22    24    1
    32    22    25    1
    33    32    33    1
    34    32    34    1
    35    13    35    1
    36    35    36    1
    37    13    37    1
    38    32    38    1
    39    38    39    1
    40    38    40    1
    41    38    41    1
@<TRIPOS>SUBSTRUCTURE
     1 1           1 GROUP             0 ****  ****    0  
@<TRIPOS>MOLECULE
Molecule Name_00001_00189
    41    41     1     0     0
SMALL
NO_CHARGES
****
Generated from the CSD

@<TRIPOS>ATOM
     1 C5      -5.5984   0.7462  -0.2235   C.ar      1 1      0.0000
     2 C4      -5.3307   0.1059   0.9672   C.ar      1 1      0.0000
     3 C3      -4.0419  -0.3079   1.2600   C.ar      1 1      0.0000
     4 C8      -3.0047  -0.0864   0.3670   C.ar      1 1      0.0000
     5 C7      -3.2888   0.5577  -0.8273   C.ar      1 1      0.0000
     6 C6      -4.5772   0.9719  -1.1211   C.ar      1 1      0.0000
     7 H4      -6.1314  -0.0744   1.6768   H         1 1      0.0000
     8 C9      -1.6007  -0.5405   0.6851   C.3       1 1      0.0000
     9 H7      -2.4918   0.7395  -1.5408   H         1 1      0.0000
    10 H6      -4.7832   1.4753  -2.0599   H         1 1      0.0000
    11 C10     -0.5978  -0.2075  -0.4178   C.3       1 1      0.0000
    12 H9A     -1.2755  -0.0648   1.6186   H         1 1      0.0000
    13 C11      0.8337  -0.6430  -0.1491   C.3       1 1      0.0000
    14 C12      1.8299   0.4787  -0.4213   C.3       1 1      0.0000
    15 H12A     1.6392   1.3043   0.2755   H         1 1      0.0000
    16 C13      3.2554   0.0391  -0.2790   C.2       1 1      0.0000
    17 C14      4.3225   1.0670  -0.5079   C.3       1 1      0.0000
    18 H14B     4.0282   1.6971  -1.3563   H         1 1      0.0000
    19 H14A     5.2578   0.5623  -0.7792   H         1 1      0.0000
    20 N        3.5487  -1.2023   0.0529   N.pl3     1 1      0.0000
    21 HN       2.7617  -1.8101   0.2794   H         1 1      0.0000
    22 C        4.8789  -1.7560   0.2606   C.3       1 1      0.0000
    23 H1A      4.8662  -2.5040   1.0505   H         1 1      0.0000
    24 H1C      5.2455  -2.2291  -0.6480   H         1 1      0.0000
    25 H1B      5.5825  -0.9760   0.5436   H         1 1      0.0000
    26 H10A    -0.9352  -0.6841  -1.3465   H         1 1      0.0000
    27 H10B    -0.6052   0.8780  -0.5761   H         1 1      0.0000
    28 H9B     -1.6055  -1.6254   0.8475   H         1 1      0.0000
    29 H5      -6.6079   1.0708  -0.4531   H         1 1      0.0000
    30 H3      -3.8414  -0.8117   2.1998   H         1 1      0.0000
    31 H12B     1.6729   0.8577  -1.4387   H         1 1      0.0000
    32 C15      4.5729   1.9558   0.6963   C.3       1 1      0.0000
    33 H15A     4.8659   1.3316   1.5494   H         1 1      0.0000
    34 H15C     3.6419   2.4711   0.9631   H         1 1      0.0000
    35 OH       0.9477  -1.0495   1.2175   O.3       1 1      0.0000
    36 OH1      0.4920  -1.9182   1.3429   H         1 1      0.0000
    37 H22      1.0744  -1.4986  -0.7988   H         1 1      0.0000
    38 C16      5.6519   2.9823   0.4398   C.3       1 1      0.0000
    39 H16C     5.3777   3.6311  -0.3894   H         1 1      0.0000
    40 H16A     5.8096   3.6039   1.3187   H         1 1      0.0000
    41 H16B     6.5945   2.4978   0.1938   H         1 1      0.0000
@<TRIPOS>BOND
     1     1     2   ar
     2     1     6   ar
     3     1    29    1
     4     2     3   ar
     5     2     7    1
     6     3     4   ar
     7     3    30    1
     8     4     5   ar
     9     4     8    1
    10     5     6   ar
    11     5     9    1
    12     6    10    1
    13     8    11    1
    14     8    12    1
    15     8    28    1
    16    11    13    1
    17    11    26    1
    18    11    27    1
    19    13    14    1
    20    14    15    1
    21    14    16    1
    22    14    31    1
    23    16    17    1
    24    16    20    2
    25    17    18    1
    26    17    19    1
    27    17    32    1
    28    20    21    1
    29    20    22    1
    30    22    23    1
    31    22    24    1
    32    22    25    1
    33    32    33    1
    34    32    34    1
    35    13    35    1
    36    35    36    1
    37    13    37    1
    38    32    38    1
    39    38    39    1
    40    38    40    1
    41    38    41    1
@<TRIPOS>SUBSTRUCTURE
     1 1           1 GROUP             0 ****  ****    0  
@<TRIPOS>MOLECULE
Molecule Name_00001_00190
    41    41     1     0     0
SMALL
NO_CHARGES
****
Generated from the CSD

@<TRIPOS>ATOM
     1 C5      -5.5996   0.8357  -0.2053   C.ar      1 1      0.0000
     2 C4      -5.4216  -0.1979   0.6889   C.ar      1 1      0.0000
     3 C3      -4.1532  -0.6997   0.9285   C.ar      1 1      0.0000
     4 C8      -3.0471  -0.1744   0.2783   C.ar      1 1      0.0000
     5 C7      -3.2411   0.8642  -0.6194   C.ar      1 1      0.0000
     6 C6      -4.5091   1.3667  -0.8597   C.ar      1 1      0.0000
     7 H4      -6.2771  -0.6194   1.2062   H         1 1      0.0000
     8 C9      -1.6651  -0.7238   0.5374   C.3       1 1      0.0000
     9 H7      -2.3890   1.2886  -1.1400   H         1 1      0.0000
    10 H6      -4.6442   2.1802  -1.5647   H         1 1      0.0000
    11 C10     -0.5775  -0.0177  -0.2699   C.3       1 1      0.0000
    12 H9A     -1.4373  -0.6251   1.6059   H         1 1      0.0000
    13 C11      0.8356  -0.5319  -0.0473   C.3       1 1      0.0000
    14 C12      1.8214   0.6042   0.2024   C.3       1 1      0.0000
    15 H12A     1.5471   1.1190   1.1315   H         1 1      0.0000
    16 C13      3.2399   0.1325   0.3061   C.2       1 1      0.0000
    17 C14      4.2949   1.1649   0.5685   C.3       1 1      0.0000
    18 H14B     5.1565   0.6760   1.0398   H         1 1      0.0000
    19 H14A     3.9063   1.9062   1.2773   H         1 1      0.0000
    20 N        3.5361  -1.1464   0.1873   N.pl3     1 1      0.0000
    21 HN       2.7487  -1.7891   0.1021   H         1 1      0.0000
    22 C        4.8570  -1.7476   0.3010   C.3       1 1      0.0000
    23 H1A      4.7794  -2.8166   0.4876   H         1 1      0.0000
    24 H1C      5.4258  -1.6041  -0.6153   H         1 1      0.0000
    25 H1B      5.4162  -1.3003   1.1200   H         1 1      0.0000
    26 H10A    -0.8180  -0.1189  -1.3354   H         1 1      0.0000
    27 H10B    -0.6002   1.0505  -0.0211   H         1 1      0.0000
    28 H9B     -1.6551  -1.7928   0.2913   H         1 1      0.0000
    29 H5      -6.5931   1.2293  -0.3931   H         1 1      0.0000
    30 H3      -4.0236  -1.5139   1.6338   H         1 1      0.0000
    31 H12B     1.7454   1.3303  -0.6164   H         1 1      0.0000
    32 C15      4.7649   1.8798  -0.6849   C.3       1 1      0.0000
    33 H15A     3.9074   2.3695  -1.1626   H         1 1      0.0000
    34 H15C     5.1649   1.1421  -1.3914   H         1 1      0.0000
    35 OH       0.8386  -1.4112   1.0809   O.3       1 1      0.0000
    36 OH1      0.4441  -2.2807   0.8232   H         1 1      0.0000
    37 H22      1.1563  -1.0922  -0.9392   H         1 1      0.0000
    38 C16      5.8272   2.9143  -0.3935   C.3       1 1      0.0000
    39 H16C     6.7007   2.4525   0.0620   H         1 1      0.0000
    40 H16A     6.1443   3.4099  -1.3087   H         1 1      0.0000
    41 H16B     5.4500   3.6727   0.2894   H         1 1      0.0000
@<TRIPOS>BOND
     1     1     2   ar
     2     1     6   ar
     3     1    29    1
     4     2     3   ar
     5     2     7    1
     6     3     4   ar
     7     3    30    1
     8     4     5   ar
     9     4     8    1
    10     5     6   ar
    11     5     9    1
    12     6    10    1
    13     8    11    1
    14     8    12    1
    15     8    28    1
    16    11    13    1
    17    11    26    1
    18    11    27    1
    19    13    14    1
    20    14    15    1
    21    14    16    1
    22    14    31    1
    23    16    17    1
    24    16    20    2
    25    17    18    1
    26    17    19    1
    27    17    32    1
    28    20    21    1
    29    20    22    1
    30    22    23    1
    31    22    24    1
    32    22    25    1
    33    32    33    1
    34    32    34    1
    35    13    35    1
    36    35    36    1
    37    13    37    1
    38    32    38    1
    39    38    39    1
    40    38    40    1
    41    38    41    1
@<TRIPOS>SUBSTRUCTURE
     1 1           1 GROUP             0 ****  ****    0  
@<TRIPOS>MOLECULE
Molecule Name_00001_00191
    41    41     1     0     0
SMALL
NO_CHARGES
****
Generated from the CSD

@<TRIPOS>ATOM
     1 C5      -4.6835   0.8478  -1.0290   C.ar      1 1      0.0000
     2 C4      -4.4280  -0.5044  -0.9543   C.ar      1 1      0.0000
     3 C3      -3.3519  -0.9693  -0.2168   C.ar      1 1      0.0000
     4 C8      -2.5185  -0.0888   0.4557   C.ar      1 1      0.0000
     5 C7      -2.7867   1.2688   0.3707   C.ar      1 1      0.0000
     6 C6      -3.8625   1.7346  -0.3665   C.ar      1 1      0.0000
     7 H4      -5.0714  -1.2064  -1.4745   H         1 1      0.0000
     8 C9      -1.3437  -0.5957   1.2568   C.3       1 1      0.0000
     9 H7      -2.1458   1.9749   0.8883   H         1 1      0.0000
    10 H6      -4.0595   2.8001  -0.4226   H         1 1      0.0000
    11 C10     -0.0777  -0.7708   0.4204   C.3       1 1      0.0000
    12 H9A     -1.1382   0.1089   2.0721   H         1 1      0.0000
    13 C11      1.1379  -1.2798   1.1783   C.3       1 1      0.0000
    14 C12      2.3350  -1.4897   0.2576   C.3       1 1      0.0000
    15 H12A     2.0909  -2.2679  -0.4760   H         1 1      0.0000
    16 C13      2.7369  -0.2424  -0.4692   C.2       1 1      0.0000
    17 C14      3.9947   0.4421  -0.0254   C.3       1 1      0.0000
    18 H14B     4.3988   1.0171  -0.8678   H         1 1      0.0000
    19 H14A     4.7407  -0.3144   0.2471   H         1 1      0.0000
    20 N        2.0143   0.2172  -1.4711   N.pl3     1 1      0.0000
    21 HN       1.2266  -0.3600  -1.7654   H         1 1      0.0000
    22 C        2.3022   1.3889  -2.2856   C.3       1 1      0.0000
    23 H1A      1.6794   1.4009  -3.1776   H         1 1      0.0000
    24 H1C      2.1114   2.3028  -1.7269   H         1 1      0.0000
    25 H1B      3.3438   1.3953  -2.5993   H         1 1      0.0000
    26 H10A    -0.2962  -1.4731  -0.3935   H         1 1      0.0000
    27 H10B     0.1758   0.1966  -0.0305   H         1 1      0.0000
    28 H9B     -1.6097  -1.5596   1.7079   H         1 1      0.0000
    29 H5      -5.5267   1.2123  -1.6065   H         1 1      0.0000
    30 H3      -3.1588  -2.0356  -0.1646   H         1 1      0.0000
    31 H12B     3.1853  -1.8463   0.8520   H         1 1      0.0000
    32 C15      3.7896   1.3787   1.1509   C.3       1 1      0.0000
    33 H15A     3.4300   0.8016   2.0118   H         1 1      0.0000
    34 H15C     3.0168   2.1140   0.8949   H         1 1      0.0000
    35 OH       1.4860  -0.3311   2.1905   O.3       1 1      0.0000
    36 OH1      0.7214  -0.2087   2.8056   H         1 1      0.0000
    37 H22      0.8844  -2.2382   1.6572   H         1 1      0.0000
    38 C16      5.0573   2.1053   1.5362   C.3       1 1      0.0000
    39 H16C     5.4258   2.7046   0.7063   H         1 1      0.0000
    40 H16A     4.8805   2.7682   2.3806   H         1 1      0.0000
    41 H16B     5.8364   1.3995   1.8167   H         1 1      0.0000
@<TRIPOS>BOND
     1     1     2   ar
     2     1     6   ar
     3     1    29    1
     4     2     3   ar
     5     2     7    1
     6     3     4   ar
     7     3    30    1
     8     4     5   ar
     9     4     8    1
    10     5     6   ar
    11     5     9    1
    12     6    10    1
    13     8    11    1
    14     8    12    1
    15     8    28    1
    16    11    13    1
    17    11    26    1
    18    11    27    1
    19    13    14    1
    20    14    15    1
    21    14    16    1
    22    14    31    1
    23    16    17    1
    24    16    20    2
    25    17    18    1
    26    17    19    1
    27    17    32    1
    28    20    21    1
    29    20    22    1
    30    22    23    1
    31    22    24    1
    32    22    25    1
    33    32    33    1
    34    32    34    1
    35    13    35    1
    36    35    36    1
    37    13    37    1
    38    32    38    1
    39    38    39    1
    40    38    40    1
    41    38    41    1
@<TRIPOS>SUBSTRUCTURE
     1 1           1 GROUP             0 ****  ****    0  
@<TRIPOS>MOLECULE
Molecule Name_00001_00192
    41    41     1     0     0
SMALL
NO_CHARGES
****
Generated from the CSD

@<TRIPOS>ATOM
     1 C5      -4.1444   1.4207   1.2925   C.ar      1 1      0.0000
     2 C4      -3.9183   1.6393  -0.0493   C.ar      1 1      0.0000
     3 C3      -2.9905   0.8709  -0.7325   C.ar      1 1      0.0000
     4 C8      -2.2780  -0.1258  -0.0837   C.ar      1 1      0.0000
     5 C7      -2.5147  -0.3338   1.2664   C.ar      1 1      0.0000
     6 C6      -3.4423   0.4341   1.9506   C.ar      1 1      0.0000
     7 H4      -4.4683   2.4151  -0.5716   H         1 1      0.0000
     8 C9      -1.2644  -0.9610  -0.8280   C.3       1 1      0.0000
     9 H7      -1.9666  -1.1077   1.7936   H         1 1      0.0000
    10 H6      -3.6166   0.2586   3.0070   H         1 1      0.0000
    11 C10      0.1256  -0.3287  -0.8618   C.3       1 1      0.0000
    12 H9A     -1.1967  -1.9468  -0.3516   H         1 1      0.0000
    13 C11      1.1868  -1.1288  -1.5999   C.3       1 1      0.0000
    14 C12      2.5318  -0.4110  -1.6154   C.3       1 1      0.0000
    15 H12A     2.4309   0.5275  -2.1743   H         1 1      0.0000
    16 C13      3.0462  -0.1078  -0.2409   C.2       1 1      0.0000
    17 C14      3.1247   1.3330   0.1662   C.3       1 1      0.0000
    18 H14B     3.4638   1.9239  -0.6936   H         1 1      0.0000
    19 H14A     3.8736   1.4436   0.9599   H         1 1      0.0000
    20 N        3.3970  -1.0794   0.5778   N.pl3     1 1      0.0000
    21 HN       3.2250  -2.0310   0.2535   H         1 1      0.0000
    22 C        3.8761  -0.9346   1.9447   C.3       1 1      0.0000
    23 H1A      3.5299  -1.7594   2.5641   H         1 1      0.0000
    24 H1C      4.9636  -0.9234   1.9727   H         1 1      0.0000
    25 H1B      3.5166  -0.0066   2.3842   H         1 1      0.0000
    26 H10A     0.0448   0.6573  -1.3357   H         1 1      0.0000
    27 H10B     0.4624  -0.1778   0.1712   H         1 1      0.0000
    28 H9B     -1.6135  -1.1109  -1.8572   H         1 1      0.0000
    29 H5      -4.8713   2.0223   1.8281   H         1 1      0.0000
    30 H3      -2.8193   1.0511  -1.7887   H         1 1      0.0000
    31 H12B     3.2646  -1.0354  -2.1413   H         1 1      0.0000
    32 C15      1.8023   1.8953   0.6538   C.3       1 1      0.0000
    33 H15A     1.4324   1.2782   1.4819   H         1 1      0.0000
    34 H15C     1.0668   1.8409  -0.1582   H         1 1      0.0000
    35 OH       1.3409  -2.3988  -0.9602   O.3       1 1      0.0000
    36 OH1      0.4769  -2.8799  -0.9683   H         1 1      0.0000
    37 H22      0.8561  -1.2882  -2.6379   H         1 1      0.0000
    38 C16      1.9225   3.3281   1.1190   C.3       1 1      0.0000
    39 H16C     2.2675   3.9686   0.3099   H         1 1      0.0000
    40 H16A     0.9610   3.7041   1.4623   H         1 1      0.0000
    41 H16B     2.6310   3.4087   1.9407   H         1 1      0.0000
@<TRIPOS>BOND
     1     1     2   ar
     2     1     6   ar
     3     1    29    1
     4     2     3   ar
     5     2     7    1
     6     3     4   ar
     7     3    30    1
     8     4     5   ar
     9     4     8    1
    10     5     6   ar
    11     5     9    1
    12     6    10    1
    13     8    11    1
    14     8    12    1
    15     8    28    1
    16    11    13    1
    17    11    26    1
    18    11    27    1
    19    13    14    1
    20    14    15    1
    21    14    16    1
    22    14    31    1
    23    16    17    1
    24    16    20    2
    25    17    18    1
    26    17    19    1
    27    17    32    1
    28    20    21    1
    29    20    22    1
    30    22    23    1
    31    22    24    1
    32    22    25    1
    33    32    33    1
    34    32    34    1
    35    13    35    1
    36    35    36    1
    37    13    37    1
    38    32    38    1
    39    38    39    1
    40    38    40    1
    41    38    41    1
@<TRIPOS>SUBSTRUCTURE
     1 1           1 GROUP             0 ****  ****    0  
@<TRIPOS>MOLECULE
Molecule Name_00001_00193
    41    41     1     0     0
SMALL
NO_CHARGES
****
Generated from the CSD

@<TRIPOS>ATOM
     1 C5      -4.4526   0.4462  -1.2991   C.ar      1 1      0.0000
     2 C4      -4.0383  -0.8218  -0.9527   C.ar      1 1      0.0000
     3 C3      -3.1678  -1.0034   0.1090   C.ar      1 1      0.0000
     4 C8      -2.7012   0.0796   0.8381   C.ar      1 1      0.0000
     5 C7      -3.1253   1.3494   0.4777   C.ar      1 1      0.0000
     6 C6      -3.9958   1.5320  -0.5838   C.ar      1 1      0.0000
     7 H4      -4.3950  -1.6797  -1.5130   H         1 1      0.0000
     8 C9      -1.7498  -0.1185   1.9932   C.3       1 1      0.0000
     9 H7      -2.7708   2.2107   1.0342   H         1 1      0.0000
    10 H6      -4.3188   2.5323  -0.8530   H         1 1      0.0000
    11 C10     -0.4695  -0.8514   1.5973   C.3       1 1      0.0000
    12 H9A     -1.4858   0.8617   2.4091   H         1 1      0.0000
    13 C11      0.4928  -0.0576   0.7285   C.3       1 1      0.0000
    14 C12      1.7629  -0.8436   0.4222   C.3       1 1      0.0000
    15 H12A     1.5009  -1.7348  -0.1614   H         1 1      0.0000
    16 C13      2.7749  -0.0419  -0.3386   C.2       1 1      0.0000
    17 C14      3.5255   1.0165   0.4124   C.3       1 1      0.0000
    18 H14B     2.8324   1.5213   1.0966   H         1 1      0.0000
    19 H14A     3.8970   1.7671  -0.2958   H         1 1      0.0000
    20 N        3.0016  -0.2785  -1.6153   N.pl3     1 1      0.0000
    21 HN       2.5138  -1.0759  -2.0232   H         1 1      0.0000
    22 C        3.9744   0.3930  -2.4650   C.3       1 1      0.0000
    23 H1A      4.3942  -0.2991  -3.1919   H         1 1      0.0000
    24 H1C      3.5103   1.2139  -3.0076   H         1 1      0.0000
    25 H1B      4.7913   0.7984  -1.8718   H         1 1      0.0000
    26 H10A     0.0563  -1.1472   2.5136   H         1 1      0.0000
    27 H10B    -0.7467  -1.7665   1.0595   H         1 1      0.0000
    28 H9B     -2.2588  -0.6888   2.7800   H         1 1      0.0000
    29 H5      -5.1348   0.5888  -2.1306   H         1 1      0.0000
    30 H3      -2.8471  -2.0056   0.3735   H         1 1      0.0000
    31 H12B     2.2106  -1.1817   1.3649   H         1 1      0.0000
    32 C15      4.6941   0.4738   1.2142   C.3       1 1      0.0000
    33 H15A     5.3906  -0.0343   0.5360   H         1 1      0.0000
    34 H15C     4.3242  -0.2690   1.9317   H         1 1      0.0000
    35 OH      -0.1582   0.2781  -0.5001   O.3       1 1      0.0000
    36 OH1     -0.6058   1.1551  -0.4079   H         1 1      0.0000
    37 H22      0.7662   0.8702   1.2544   H         1 1      0.0000
    38 C16      5.4334   1.5597   1.9612   C.3       1 1      0.0000
    39 H16C     4.7708   2.0677   2.6588   H         1 1      0.0000
    40 H16A     6.2644   1.1422   2.5259   H         1 1      0.0000
    41 H16B     5.8311   2.3006   1.2708   H         1 1      0.0000
@<TRIPOS>BOND
     1     1     2   ar
     2     1     6   ar
     3     1    29    1
     4     2     3   ar
     5     2     7    1
     6     3     4   ar
     7     3    30    1
     8     4     5   ar
     9     4     8    1
    10     5     6   ar
    11     5     9    1
    12     6    10    1
    13     8    11    1
    14     8    12    1
    15     8    28    1
    16    11    13    1
    17    11    26    1
    18    11    27    1
    19    13    14    1
    20    14    15    1
    21    14    16    1
    22    14    31    1
    23    16    17    1
    24    16    20    2
    25    17    18    1
    26    17    19    1
    27    17    32    1
    28    20    21    1
    29    20    22    1
    30    22    23    1
    31    22    24    1
    32    22    25    1
    33    32    33    1
    34    32    34    1
    35    13    35    1
    36    35    36    1
    37    13    37    1
    38    32    38    1
    39    38    39    1
    40    38    40    1
    41    38    41    1
@<TRIPOS>SUBSTRUCTURE
     1 1           1 GROUP             0 ****  ****    0  
@<TRIPOS>MOLECULE
Molecule Name_00001_00194
    41    41     1     0     0
SMALL
NO_CHARGES
****
Generated from the CSD

@<TRIPOS>ATOM
     1 C5      -4.1545   1.1962  -1.0022   C.ar      1 1      0.0000
     2 C4      -3.8825  -0.1420  -1.1884   C.ar      1 1      0.0000
     3 C3      -3.0713  -0.8181  -0.2923   C.ar      1 1      0.0000
     4 C8      -2.5226  -0.1656   0.8010   C.ar      1 1      0.0000
     5 C7      -2.8037   1.1808   0.9750   C.ar      1 1      0.0000
     6 C6      -3.6148   1.8578   0.0796   C.ar      1 1      0.0000
     7 H4      -4.3048  -0.6670  -2.0388   H         1 1      0.0000
     8 C9      -1.6358  -0.9021   1.7756   C.3       1 1      0.0000
     9 H7      -2.3831   1.7107   1.8233   H         1 1      0.0000
    10 H6      -3.8258   2.9114   0.2301   H         1 1      0.0000
    11 C10     -0.4234  -1.5516   1.1112   C.3       1 1      0.0000
    12 H9A     -1.2884  -0.1987   2.5424   H         1 1      0.0000
    13 C11      0.6431  -0.5870   0.6180   C.3       1 1      0.0000
    14 C12      1.8369  -1.3191   0.0150   C.3       1 1      0.0000
    15 H12A     1.4965  -1.9172  -0.8392   H         1 1      0.0000
    16 C13      2.9207  -0.3899  -0.4406   C.2       1 1      0.0000
    17 C14      3.7905   0.2279   0.6127   C.3       1 1      0.0000
    18 H14B     4.7869   0.4028   0.1885   H         1 1      0.0000
    19 H14A     3.9043  -0.4765   1.4458   H         1 1      0.0000
    20 N        3.1052  -0.1456  -1.7227   N.pl3     1 1      0.0000
    21 HN       2.5290  -0.6782  -2.3741   H         1 1      0.0000
    22 C        4.1347   0.7013  -2.3074   C.3       1 1      0.0000
    23 H1A      4.3173   0.4263  -3.3441   H         1 1      0.0000
    24 H1C      3.8341   1.7466  -2.2821   H         1 1      0.0000
    25 H1B      5.0707   0.6050  -1.7613   H         1 1      0.0000
    26 H10A     0.0384  -2.2381   1.8315   H         1 1      0.0000
    27 H10B    -0.7732  -2.1461   0.2582   H         1 1      0.0000
    28 H9B     -2.2262  -1.6784   2.2777   H         1 1      0.0000
    29 H5      -4.7902   1.7261  -1.7038   H         1 1      0.0000
    30 H3      -2.8626  -1.8714  -0.4479   H         1 1      0.0000
    31 H12B     2.2485  -2.0086   0.7624   H         1 1      0.0000
    32 C15      3.2504   1.5413   1.1477   C.3       1 1      0.0000
    33 H15A     2.2604   1.3705   1.5880   H         1 1      0.0000
    34 H15C     3.1293   2.2461   0.3158   H         1 1      0.0000
    35 OH       0.0714   0.2722  -0.3724   O.3       1 1      0.0000
    36 OH1     -0.3407   1.0558   0.0681   H         1 1      0.0000
    37 H22      0.9908   0.0243   1.4651   H         1 1      0.0000
    38 C16      4.1569   2.1549   2.1895   C.3       1 1      0.0000
    39 H16C     5.1420   2.3558   1.7735   H         1 1      0.0000
    40 H16A     3.7452   3.0935   2.5544   H         1 1      0.0000
    41 H16B     4.2777   1.4851   3.0383   H         1 1      0.0000
@<TRIPOS>BOND
     1     1     2   ar
     2     1     6   ar
     3     1    29    1
     4     2     3   ar
     5     2     7    1
     6     3     4   ar
     7     3    30    1
     8     4     5   ar
     9     4     8    1
    10     5     6   ar
    11     5     9    1
    12     6    10    1
    13     8    11    1
    14     8    12    1
    15     8    28    1
    16    11    13    1
    17    11    26    1
    18    11    27    1
    19    13    14    1
    20    14    15    1
    21    14    16    1
    22    14    31    1
    23    16    17    1
    24    16    20    2
    25    17    18    1
    26    17    19    1
    27    17    32    1
    28    20    21    1
    29    20    22    1
    30    22    23    1
    31    22    24    1
    32    22    25    1
    33    32    33    1
    34    32    34    1
    35    13    35    1
    36    35    36    1
    37    13    37    1
    38    32    38    1
    39    38    39    1
    40    38    40    1
    41    38    41    1
@<TRIPOS>SUBSTRUCTURE
     1 1           1 GROUP             0 ****  ****    0  
@<TRIPOS>MOLECULE
Molecule Name_00001_00195
    41    41     1     0     0
SMALL
NO_CHARGES
****
Generated from the CSD

@<TRIPOS>ATOM
     1 C5      -4.0416   1.5447   1.1598   C.ar      1 1      0.0000
     2 C4      -3.6576   1.7535  -0.1472   C.ar      1 1      0.0000
     3 C3      -2.9744   0.7663  -0.8377   C.ar      1 1      0.0000
     4 C8      -2.6673  -0.4419  -0.2309   C.ar      1 1      0.0000
     5 C7      -3.0587  -0.6377   1.0846   C.ar      1 1      0.0000
     6 C6      -3.7419   0.3488   1.7759   C.ar      1 1      0.0000
     7 H4      -3.8910   2.6934  -0.6364   H         1 1      0.0000
     8 C9      -1.9197  -1.5164  -0.9828   C.3       1 1      0.0000
     9 H7      -2.8269  -1.5755   1.5786   H         1 1      0.0000
    10 H6      -4.0419   0.1800   2.8048   H         1 1      0.0000
    11 C10     -0.5715  -1.0435  -1.5230   C.3       1 1      0.0000
    12 H9A     -1.7566  -2.3708  -0.3144   H         1 1      0.0000
    13 C11      0.5018  -0.8027  -0.4737   C.3       1 1      0.0000
    14 C12      1.8263  -0.3823  -1.1012   C.3       1 1      0.0000
    15 H12A     1.7042   0.6016  -1.5707   H         1 1      0.0000
    16 C13      2.9459  -0.3136  -0.1076   C.2       1 1      0.0000
    17 C14      2.9890   0.8751   0.8050   C.3       1 1      0.0000
    18 H14B     3.5459   0.6039   1.7104   H         1 1      0.0000
    19 H14A     1.9676   1.1337   1.1097   H         1 1      0.0000
    20 N        3.8436  -1.2761  -0.0349   N.pl3     1 1      0.0000
    21 HN       3.6862  -2.0898  -0.6292   H         1 1      0.0000
    22 C        4.9568  -1.3584   0.8994   C.3       1 1      0.0000
    23 H1A      5.3262  -2.3794   0.9701   H         1 1      0.0000
    24 H1C      5.7785  -0.7225   0.5767   H         1 1      0.0000
    25 H1B      4.6518  -1.0387   1.8935   H         1 1      0.0000
    26 H10A    -0.2003  -1.7953  -2.2304   H         1 1      0.0000
    27 H10B    -0.7289  -0.1101  -2.0775   H         1 1      0.0000
    28 H9B     -2.5387  -1.8612  -1.8203   H         1 1      0.0000
    29 H5      -4.5771   2.3177   1.7009   H         1 1      0.0000
    30 H3      -2.6758   0.9406  -1.8661   H         1 1      0.0000
    31 H12B     2.0918  -1.0976  -1.8895   H         1 1      0.0000
    32 C15      3.6404   2.0940   0.1783   C.3       1 1      0.0000
    33 H15A     3.0893   2.3697  -0.7293   H         1 1      0.0000
    34 H15C     4.6664   1.8419  -0.1171   H         1 1      0.0000
    35 OH       0.0589   0.2243   0.4178   O.3       1 1      0.0000
    36 OH1     -0.3571  -0.1870   1.2152   H         1 1      0.0000
    37 H22      0.6571  -1.7309   0.0977   H         1 1      0.0000
    38 C16      3.6713   3.2773   1.1177   C.3       1 1      0.0000
    39 H16C     4.2314   3.0392   2.0196   H         1 1      0.0000
    40 H16A     4.1427   4.1349   0.6424   H         1 1      0.0000
    41 H16B     2.6633   3.5637   1.4105   H         1 1      0.0000
@<TRIPOS>BOND
     1     1     2   ar
     2     1     6   ar
     3     1    29    1
     4     2     3   ar
     5     2     7    1
     6     3     4   ar
     7     3    30    1
     8     4     5   ar
     9     4     8    1
    10     5     6   ar
    11     5     9    1
    12     6    10    1
    13     8    11    1
    14     8    12    1
    15     8    28    1
    16    11    13    1
    17    11    26    1
    18    11    27    1
    19    13    14    1
    20    14    15    1
    21    14    16    1
    22    14    31    1
    23    16    17    1
    24    16    20    2
    25    17    18    1
    26    17    19    1
    27    17    32    1
    28    20    21    1
    29    20    22    1
    30    22    23    1
    31    22    24    1
    32    22    25    1
    33    32    33    1
    34    32    34    1
    35    13    35    1
    36    35    36    1
    37    13    37    1
    38    32    38    1
    39    38    39    1
    40    38    40    1
    41    38    41    1
@<TRIPOS>SUBSTRUCTURE
     1 1           1 GROUP             0 ****  ****    0  
@<TRIPOS>MOLECULE
Molecule Name_00001_00196
    41    41     1     0     0
SMALL
NO_CHARGES
****
Generated from the CSD

@<TRIPOS>ATOM
     1 C5      -3.1234   1.6786   1.5401   C.ar      1 1      0.0000
     2 C4      -2.8313   1.8849   0.2091   C.ar      1 1      0.0000
     3 C3      -2.2942   0.8602  -0.5521   C.ar      1 1      0.0000
     4 C8      -2.0430  -0.3834   0.0071   C.ar      1 1      0.0000
     5 C7      -2.3405  -0.5763   1.3474   C.ar      1 1      0.0000
     6 C6      -2.8777   0.4478   2.1094   C.ar      1 1      0.0000
     7 H4      -3.0227   2.8523  -0.2434   H         1 1      0.0000
     8 C9      -1.4544  -1.4991  -0.8222   C.3       1 1      0.0000
     9 H7      -2.1501  -1.5415   1.8049   H         1 1      0.0000
    10 H6      -3.1056   0.2807   3.1569   H         1 1      0.0000
    11 C10      0.0725  -1.4789  -0.8580   C.3       1 1      0.0000
    12 H9A     -1.7892  -2.4607  -0.4140   H         1 1      0.0000
    13 C11      0.6904  -0.3188  -1.6217   C.3       1 1      0.0000
    14 C12      2.2141  -0.3653  -1.5915   C.3       1 1      0.0000
    15 H12A     2.6097   0.4122  -2.2566   H         1 1      0.0000
    16 C13      2.7759  -0.1640  -0.2169   C.2       1 1      0.0000
    17 C14      2.7497   1.2259   0.3446   C.3       1 1      0.0000
    18 H14B     2.8578   1.9409  -0.4803   H         1 1      0.0000
    19 H14A     3.6077   1.3610   1.0144   H         1 1      0.0000
    20 N        3.2562  -1.1805   0.4712   N.pl3     1 1      0.0000
    21 HN       3.1509  -2.1038   0.0510   H         1 1      0.0000
    22 C        3.7964  -1.1385   1.8223   C.3       1 1      0.0000
    23 H1A      3.5595  -2.0537   2.3609   H         1 1      0.0000
    24 H1C      4.8786  -1.0283   1.8013   H         1 1      0.0000
    25 H1B      3.3818  -0.3007   2.3787   H         1 1      0.0000
    26 H10A     0.4416  -1.4482   0.1746   H         1 1      0.0000
    27 H10B     0.4205  -2.4156  -1.3108   H         1 1      0.0000
    28 H9B     -1.8366  -1.4204  -1.8474   H         1 1      0.0000
    29 H5      -3.5445   2.4811   2.1367   H         1 1      0.0000
    30 H3      -2.0672   1.0327  -1.5989   H         1 1      0.0000
    31 H12B     2.5501  -1.3362  -1.9760   H         1 1      0.0000
    32 C15      1.4756   1.5461   1.1042   C.3       1 1      0.0000
    33 H15A     1.3477   0.8185   1.9151   H         1 1      0.0000
    34 H15C     0.6183   1.4464   0.4272   H         1 1      0.0000
    35 OH       0.2471  -0.3675  -2.9807   O.3       1 1      0.0000
    36 OH1     -0.7352  -0.2569  -3.0121   H         1 1      0.0000
    37 H22      0.3537   0.6265  -1.1686   H         1 1      0.0000
    38 C16      1.4879   2.9404   1.6870   C.3       1 1      0.0000
    39 H16C     1.5919   3.6859   0.9014   H         1 1      0.0000
    40 H16A     0.5639   3.1416   2.2250   H         1 1      0.0000
    41 H16B     2.3172   3.0611   2.3808   H         1 1      0.0000
@<TRIPOS>BOND
     1     1     2   ar
     2     1     6   ar
     3     1    29    1
     4     2     3   ar
     5     2     7    1
     6     3     4   ar
     7     3    30    1
     8     4     5   ar
     9     4     8    1
    10     5     6   ar
    11     5     9    1
    12     6    10    1
    13     8    11    1
    14     8    12    1
    15     8    28    1
    16    11    13    1
    17    11    26    1
    18    11    27    1
    19    13    14    1
    20    14    15    1
    21    14    16    1
    22    14    31    1
    23    16    17    1
    24    16    20    2
    25    17    18    1
    26    17    19    1
    27    17    32    1
    28    20    21    1
    29    20    22    1
    30    22    23    1
    31    22    24    1
    32    22    25    1
    33    32    33    1
    34    32    34    1
    35    13    35    1
    36    35    36    1
    37    13    37    1
    38    32    38    1
    39    38    39    1
    40    38    40    1
    41    38    41    1
@<TRIPOS>SUBSTRUCTURE
     1 1           1 GROUP             0 ****  ****    0  
@<TRIPOS>MOLECULE
Molecule Name_00001_00197
    41    41     1     0     0
SMALL
NO_CHARGES
****
Generated from the CSD

@<TRIPOS>ATOM
     1 C5      -3.5202  -0.3791   1.9201   C.ar      1 1      0.0000
     2 C4      -3.1021   0.8878   1.5744   C.ar      1 1      0.0000
     3 C3      -2.5042   1.1117   0.3454   C.ar      1 1      0.0000
     4 C8      -2.3174   0.0728  -0.5534   C.ar      1 1      0.0000
     5 C7      -2.7417  -1.1966  -0.1918   C.ar      1 1      0.0000
     6 C6      -3.3397  -1.4216   1.0369   C.ar      1 1      0.0000
     7 H4      -3.2417   1.7116   2.2666   H         1 1      0.0000
     8 C9      -1.6626   0.3168  -1.8915   C.3       1 1      0.0000
     9 H7      -2.6035  -2.0239  -0.8800   H         1 1      0.0000
    10 H6      -3.6669  -2.4208   1.3047   H         1 1      0.0000
    11 C10     -0.1391   0.2208  -1.8406   C.3       1 1      0.0000
    12 H9A     -2.0425  -0.4172  -2.6128   H         1 1      0.0000
    13 C11      0.5579   1.3336  -1.0744   C.3       1 1      0.0000
    14 C12      2.0715   1.1506  -1.0574   C.3       1 1      0.0000
    15 H12A     2.5385   2.0628  -0.6658   H         1 1      0.0000
    16 C13      2.5079  -0.0170  -0.2256   C.2       1 1      0.0000
    17 C14      2.3990   0.1153   1.2638   C.3       1 1      0.0000
    18 H14B     2.3220  -0.8875   1.7017   H         1 1      0.0000
    19 H14A     1.4777   0.6564   1.5118   H         1 1      0.0000
    20 N        2.9523  -1.1208  -0.7927   N.pl3     1 1      0.0000
    21 HN       2.9065  -1.1586  -1.8108   H         1 1      0.0000
    22 C        3.3732  -2.3383  -0.1148   C.3       1 1      0.0000
    23 H1A      3.3638  -3.1838  -0.7994   H         1 1      0.0000
    24 H1C      4.3823  -2.2316   0.2778   H         1 1      0.0000
    25 H1B      2.7093  -2.5675   0.7161   H         1 1      0.0000
    26 H10A     0.1312  -0.7374  -1.3799   H         1 1      0.0000
    27 H10B     0.2422   0.2177  -2.8692   H         1 1      0.0000
    28 H9B     -1.9457   1.3142  -2.2499   H         1 1      0.0000
    29 H5      -3.9889  -0.5550   2.8827   H         1 1      0.0000
    30 H3      -2.1779   2.1127   0.0828   H         1 1      0.0000
    31 H12B     2.4264   1.0091  -2.0857   H         1 1      0.0000
    32 C15      3.5779   0.8338   1.8938   C.3       1 1      0.0000
    33 H15A     3.6619   1.8373   1.4587   H         1 1      0.0000
    34 H15C     4.4999   0.2885   1.6572   H         1 1      0.0000
    35 OH       0.2445   2.5875  -1.6870   O.3       1 1      0.0000
    36 OH1     -0.7276   2.7555  -1.6171   H         1 1      0.0000
    37 H22      0.1881   1.3390  -0.0374   H         1 1      0.0000
    38 C16      3.4439   0.9540   3.3942   C.3       1 1      0.0000
    39 H16C     3.3803  -0.0292   3.8557   H         1 1      0.0000
    40 H16A     4.3016   1.4724   3.8177   H         1 1      0.0000
    41 H16B     2.5472   1.5108   3.6580   H         1 1      0.0000
@<TRIPOS>BOND
     1     1     2   ar
     2     1     6   ar
     3     1    29    1
     4     2     3   ar
     5     2     7    1
     6     3     4   ar
     7     3    30    1
     8     4     5   ar
     9     4     8    1
    10     5     6   ar
    11     5     9    1
    12     6    10    1
    13     8    11    1
    14     8    12    1
    15     8    28    1
    16    11    13    1
    17    11    26    1
    18    11    27    1
    19    13    14    1
    20    14    15    1
    21    14    16    1
    22    14    31    1
    23    16    17    1
    24    16    20    2
    25    17    18    1
    26    17    19    1
    27    17    32    1
    28    20    21    1
    29    20    22    1
    30    22    23    1
    31    22    24    1
    32    22    25    1
    33    32    33    1
    34    32    34    1
    35    13    35    1
    36    35    36    1
    37    13    37    1
    38    32    38    1
    39    38    39    1
    40    38    40    1
    41    38    41    1
@<TRIPOS>SUBSTRUCTURE
     1 1           1 GROUP             0 ****  ****    0  
@<TRIPOS>MOLECULE
Molecule Name_00001_00198
    41    41     1     0     0
SMALL
NO_CHARGES
****
Generated from the CSD

@<TRIPOS>ATOM
     1 C5      -3.9849   0.5821  -1.4559   C.ar      1 1      0.0000
     2 C4      -3.5870  -0.6798  -1.0701   C.ar      1 1      0.0000
     3 C3      -2.7633  -0.8431   0.0311   C.ar      1 1      0.0000
     4 C8      -2.3276   0.2523   0.7608   C.ar      1 1      0.0000
     5 C7      -2.7347   1.5157   0.3607   C.ar      1 1      0.0000
     6 C6      -3.5585   1.6801  -0.7404   C.ar      1 1      0.0000
     7 H4      -3.9199  -1.5472  -1.6305   H         1 1      0.0000
     8 C9      -1.4271   0.0741   1.9592   C.3       1 1      0.0000
     9 H7      -2.4039   2.3865   0.9170   H         1 1      0.0000
    10 H6      -3.8688   2.6755  -1.0405   H         1 1      0.0000
    11 C10      0.0558   0.0359   1.5951   C.3       1 1      0.0000
    12 H9A     -1.6011   0.8990   2.6611   H         1 1      0.0000
    13 C11      0.5056  -1.1957   0.8258   C.3       1 1      0.0000
    14 C12      2.0124  -1.2014   0.5924   C.3       1 1      0.0000
    15 H12A     2.3108  -2.1820   0.2014   H         1 1      0.0000
    16 C13      2.4577  -0.1380  -0.3649   C.2       1 1      0.0000
    17 C14      2.7595   1.2180   0.1988   C.3       1 1      0.0000
    18 H14B     2.0425   1.4336   1.0006   H         1 1      0.0000
    19 H14A     2.6185   1.9739  -0.5834   H         1 1      0.0000
    20 N        2.5929  -0.4002  -1.6496   N.pl3     1 1      0.0000
    21 HN       2.4555  -1.3705  -1.9321   H         1 1      0.0000
    22 C        3.0486   0.5194  -2.6818   C.3       1 1      0.0000
    23 H1A      3.6288  -0.0059  -3.4375   H         1 1      0.0000
    24 H1C      2.2033   0.9956  -3.1742   H         1 1      0.0000
    25 H1B      3.6752   1.2998  -2.2552   H         1 1      0.0000
    26 H10A     0.2861   0.9229   0.9921   H         1 1      0.0000
    27 H10B     0.6413   0.0985   2.5207   H         1 1      0.0000
    28 H9B     -1.6936  -0.8599   2.4691   H         1 1      0.0000
    29 H5      -4.6305   0.7104  -2.3184   H         1 1      0.0000
    30 H3      -2.4551  -1.8406   0.3264   H         1 1      0.0000
    31 H12B     2.5236  -1.0551   1.5518   H         1 1      0.0000
    32 C15      4.1658   1.3409   0.7558   C.3       1 1      0.0000
    33 H15A     4.8883   1.1245  -0.0407   H         1 1      0.0000
    34 H15C     4.3062   0.5937   1.5466   H         1 1      0.0000
    35 OH       0.1416  -2.3648   1.5650   O.3       1 1      0.0000
    36 OH1     -0.8439  -2.4309   1.6145   H         1 1      0.0000
    37 H22     -0.0059  -1.2142  -0.1490   H         1 1      0.0000
    38 C16      4.4445   2.7159   1.3174   C.3       1 1      0.0000
    39 H16C     3.7550   2.9492   2.1260   H         1 1      0.0000
    40 H16A     5.4580   2.7745   1.7086   H         1 1      0.0000
    41 H16B     4.3339   3.4766   0.5475   H         1 1      0.0000
@<TRIPOS>BOND
     1     1     2   ar
     2     1     6   ar
     3     1    29    1
     4     2     3   ar
     5     2     7    1
     6     3     4   ar
     7     3    30    1
     8     4     5   ar
     9     4     8    1
    10     5     6   ar
    11     5     9    1
    12     6    10    1
    13     8    11    1
    14     8    12    1
    15     8    28    1
    16    11    13    1
    17    11    26    1
    18    11    27    1
    19    13    14    1
    20    14    15    1
    21    14    16    1
    22    14    31    1
    23    16    17    1
    24    16    20    2
    25    17    18    1
    26    17    19    1
    27    17    32    1
    28    20    21    1
    29    20    22    1
    30    22    23    1
    31    22    24    1
    32    22    25    1
    33    32    33    1
    34    32    34    1
    35    13    35    1
    36    35    36    1
    37    13    37    1
    38    32    38    1
    39    38    39    1
    40    38    40    1
    41    38    41    1
@<TRIPOS>SUBSTRUCTURE
     1 1           1 GROUP             0 ****  ****    0  
@<TRIPOS>MOLECULE
Molecule Name_00001_00199
    41    41     1     0     0
SMALL
NO_CHARGES
****
Generated from the CSD

@<TRIPOS>ATOM
     1 C5      -4.7889   0.7374  -1.1837   C.ar      1 1      0.0000
     2 C4      -3.6239   0.3414  -1.8043   C.ar      1 1      0.0000
     3 C3      -2.5727  -0.1606  -1.0552   C.ar      1 1      0.0000
     4 C8      -2.6731  -0.2737   0.3229   C.ar      1 1      0.0000
     5 C7      -3.8504   0.1296   0.9339   C.ar      1 1      0.0000
     6 C6      -4.9021   0.6317   0.1857   C.ar      1 1      0.0000
     7 H4      -3.5299   0.4230  -2.8821   H         1 1      0.0000
     8 C9      -1.5259  -0.8179   1.1394   C.3       1 1      0.0000
     9 H7      -3.9491   0.0510   2.0115   H         1 1      0.0000
    10 H6      -5.8173   0.9426   0.6788   H         1 1      0.0000
    11 C10     -0.2279  -0.0362   0.9461   C.3       1 1      0.0000
    12 H9A     -1.8018  -0.7946   2.2008   H         1 1      0.0000
    13 C11      0.9617  -0.5421   1.7460   C.3       1 1      0.0000
    14 C12      2.2172   0.2813   1.4802   C.3       1 1      0.0000
    15 H12A     3.0034  -0.0278   2.1800   H         1 1      0.0000
    16 C13      2.7253   0.1327   0.0783   C.2       1 1      0.0000
    17 C14      3.3954   1.3205  -0.5443   C.3       1 1      0.0000
    18 H14B     2.8465   2.2256  -0.2563   H         1 1      0.0000
    19 H14A     3.3417   1.2342  -1.6364   H         1 1      0.0000
    20 N        2.5988  -1.0093  -0.5678   N.pl3     1 1      0.0000
    21 HN       2.2140  -1.7909  -0.0376   H         1 1      0.0000
    22 C        3.0745  -1.3059  -1.9112   C.3       1 1      0.0000
    23 H1A      3.4031  -2.3405  -1.9842   H         1 1      0.0000
    24 H1C      2.2848  -1.1489  -2.6430   H         1 1      0.0000
    25 H1B      3.9127  -0.6646  -2.1750   H         1 1      0.0000
    26 H10A     0.0355  -0.0625  -0.1185   H         1 1      0.0000
    27 H10B    -0.4098   1.0101   1.2208   H         1 1      0.0000
    28 H9B     -1.3565  -1.8655   0.8614   H         1 1      0.0000
    29 H5      -5.6128   1.1305  -1.7703   H         1 1      0.0000
    30 H3      -1.6594  -0.4692  -1.5531   H         1 1      0.0000
    31 H12B     1.9982   1.3392   1.6704   H         1 1      0.0000
    32 C15      4.8475   1.4789  -0.1329   C.3       1 1      0.0000
    33 H15A     5.4023   0.5760  -0.4163   H         1 1      0.0000
    34 H15C     4.9037   1.5771   0.9583   H         1 1      0.0000
    35 OH       0.6463  -0.4786   3.1397   O.3       1 1      0.0000
    36 OH1     -0.1509  -1.0342   3.3237   H         1 1      0.0000
    37 H22      1.1578  -1.5898   1.4703   H         1 1      0.0000
    38 C16      5.4994   2.6824  -0.7734   C.3       1 1      0.0000
    39 H16C     4.9819   3.5970  -0.4916   H         1 1      0.0000
    40 H16A     6.5378   2.7705  -0.4610   H         1 1      0.0000
    41 H16B     5.4775   2.6012  -1.8582   H         1 1      0.0000
@<TRIPOS>BOND
     1     1     2   ar
     2     1     6   ar
     3     1    29    1
     4     2     3   ar
     5     2     7    1
     6     3     4   ar
     7     3    30    1
     8     4     5   ar
     9     4     8    1
    10     5     6   ar
    11     5     9    1
    12     6    10    1
    13     8    11    1
    14     8    12    1
    15     8    28    1
    16    11    13    1
    17    11    26    1
    18    11    27    1
    19    13    14    1
    20    14    15    1
    21    14    16    1
    22    14    31    1
    23    16    17    1
    24    16    20    2
    25    17    18    1
    26    17    19    1
    27    17    32    1
    28    20    21    1
    29    20    22    1
    30    22    23    1
    31    22    24    1
    32    22    25    1
    33    32    33    1
    34    32    34    1
    35    13    35    1
    36    35    36    1
    37    13    37    1
    38    32    38    1
    39    38    39    1
    40    38    40    1
    41    38    41    1
@<TRIPOS>SUBSTRUCTURE
     1 1           1 GROUP             0 ****  ****    0  
@<TRIPOS>MOLECULE
Molecule Name_00001_00200
    41    41     1     0     0
SMALL
NO_CHARGES
****
Generated from the CSD

@<TRIPOS>ATOM
     1 C5      -5.0967  -0.3003  -1.1157   C.ar      1 1      0.0000
     2 C4      -3.9114  -0.8355  -1.5719   C.ar      1 1      0.0000
     3 C3      -2.7673  -0.7545  -0.7958   C.ar      1 1      0.0000
     4 C8      -2.7936  -0.1385   0.4460   C.ar      1 1      0.0000
     5 C7      -3.9924   0.3965   0.8917   C.ar      1 1      0.0000
     6 C6      -5.1371   0.3160   0.1164   C.ar      1 1      0.0000
     7 H4      -3.8746  -1.3213  -2.5414   H         1 1      0.0000
     8 C9      -1.5455  -0.0476   1.2902   C.3       1 1      0.0000
     9 H7      -4.0343   0.8842   1.8600   H         1 1      0.0000
    10 H6      -6.0678   0.7391   0.4797   H         1 1      0.0000
    11 C10     -0.3886   0.6505   0.5779   C.3       1 1      0.0000
    12 H9A     -1.7785   0.4989   2.2125   H         1 1      0.0000
    13 C11      0.8950   0.7697   1.3836   C.3       1 1      0.0000
    14 C12      2.0164   1.4123   0.5748   C.3       1 1      0.0000
    15 H12A     2.7085   1.9174   1.2599   H         1 1      0.0000
    16 C13      2.7814   0.4220  -0.2497   C.2       1 1      0.0000
    17 C14      4.1851   0.7804  -0.6353   C.3       1 1      0.0000
    18 H14B     4.2181   1.8461  -0.8936   H         1 1      0.0000
    19 H14A     4.4695   0.2140  -1.5305   H         1 1      0.0000
    20 N        2.2374  -0.7258  -0.6020   N.pl3     1 1      0.0000
    21 HN       1.3135  -0.9269  -0.2199   H         1 1      0.0000
    22 C        2.8713  -1.7906  -1.3658   C.3       1 1      0.0000
    23 H1A      2.5270  -2.7656  -1.0273   H         1 1      0.0000
    24 H1C      2.6372  -1.6975  -2.4243   H         1 1      0.0000
    25 H1B      3.9529  -1.7555  -1.2542   H         1 1      0.0000
    26 H10A    -0.1676   0.0986  -0.3441   H         1 1      0.0000
    27 H10B    -0.7144   1.6591   0.2950   H         1 1      0.0000
    28 H9B     -1.2319  -1.0602   1.5724   H         1 1      0.0000
    29 H5      -5.9933  -0.3638  -1.7233   H         1 1      0.0000
    30 H3      -1.8389  -1.1784  -1.1641   H         1 1      0.0000
    31 H12B     1.5881   2.1740  -0.0884   H         1 1      0.0000
    32 C15      5.1995   0.5123   0.4610   C.3       1 1      0.0000
    33 H15A     5.1704  -0.5519   0.7256   H         1 1      0.0000
    34 H15C     4.9243   1.0866   1.3542   H         1 1      0.0000
    35 OH       0.6424   1.5629   2.5467   O.3       1 1      0.0000
    36 OH1     -0.0672   1.1379   3.0888   H         1 1      0.0000
    37 H22      1.2138  -0.2361   1.6980   H         1 1      0.0000
    38 C16      6.6053   0.8817   0.0475   C.3       1 1      0.0000
    39 H16C     6.6691   1.9392  -0.2004   H         1 1      0.0000
    40 H16A     7.3097   0.6790   0.8515   H         1 1      0.0000
    41 H16B     6.9134   0.3098  -0.8253   H         1 1      0.0000
@<TRIPOS>BOND
     1     1     2   ar
     2     1     6   ar
     3     1    29    1
     4     2     3   ar
     5     2     7    1
     6     3     4   ar
     7     3    30    1
     8     4     5   ar
     9     4     8    1
    10     5     6   ar
    11     5     9    1
    12     6    10    1
    13     8    11    1
    14     8    12    1
    15     8    28    1
    16    11    13    1
    17    11    26    1
    18    11    27    1
    19    13    14    1
    20    14    15    1
    21    14    16    1
    22    14    31    1
    23    16    17    1
    24    16    20    2
    25    17    18    1
    26    17    19    1
    27    17    32    1
    28    20    21    1
    29    20    22    1
    30    22    23    1
    31    22    24    1
    32    22    25    1
    33    32    33    1
    34    32    34    1
    35    13    35    1
    36    35    36    1
    37    13    37    1
    38    32    38    1
    39    38    39    1
    40    38    40    1
    41    38    41    1
@<TRIPOS>SUBSTRUCTURE
     1 1           1 GROUP             0 ****  ****    0  
@<TRIPOS>MOLECULE
Molecule Name_00001_00201
    41    41     1     0     0
SMALL
NO_CHARGES
****
Generated from the CSD

@<TRIPOS>ATOM
     1 C5      -4.9404   0.5185  -1.1774   C.ar      1 1      0.0000
     2 C4      -3.7593   0.1776  -1.8004   C.ar      1 1      0.0000
     3 C3      -2.6657  -0.2189  -1.0489   C.ar      1 1      0.0000
     4 C8      -2.7390  -0.2803   0.3342   C.ar      1 1      0.0000
     5 C7      -3.9330   0.0666   0.9475   C.ar      1 1      0.0000
     6 C6      -5.0272   0.4632   0.1969   C.ar      1 1      0.0000
     7 H4      -3.6860   0.2200  -2.8821   H         1 1      0.0000
     8 C9      -1.5457  -0.7095   1.1532   C.3       1 1      0.0000
     9 H7      -4.0111   0.0268   2.0290   H         1 1      0.0000
    10 H6      -5.9548   0.7310   0.6919   H         1 1      0.0000
    11 C10     -0.3079   0.1507   0.9064   C.3       1 1      0.0000
    12 H9A     -1.8080  -0.6604   2.2172   H         1 1      0.0000
    13 C11      0.9249  -0.2380   1.7066   C.3       1 1      0.0000
    14 C12      2.1307   0.6233   1.3476   C.3       1 1      0.0000
    15 H12A     2.8033   0.6767   2.2126   H         1 1      0.0000
    16 C13      2.8920   0.0975   0.1688   C.2       1 1      0.0000
    17 C14      4.3356   0.4839   0.0493   C.3       1 1      0.0000
    18 H14B     4.8541  -0.2729  -0.5522   H         1 1      0.0000
    19 H14A     4.7929   0.4847   1.0463   H         1 1      0.0000
    20 N        2.3096  -0.6889  -0.7143   N.pl3     1 1      0.0000
    21 HN       1.3529  -0.9749  -0.5067   H         1 1      0.0000
    22 C        2.9322  -1.2983  -1.8804   C.3       1 1      0.0000
    23 H1A      2.3132  -2.1029  -2.2718   H         1 1      0.0000
    24 H1C      3.0723  -0.5637  -2.6706   H         1 1      0.0000
    25 H1B      3.9058  -1.7124  -1.6269   H         1 1      0.0000
    26 H10A    -0.0579   0.0977  -0.1604   H         1 1      0.0000
    27 H10B    -0.5581   1.1927   1.1408   H         1 1      0.0000
    28 H9B     -1.3079  -1.7537   0.9158   H         1 1      0.0000
    29 H5      -5.7975   0.8290  -1.7659   H         1 1      0.0000
    30 H3      -1.7401  -0.4847  -1.5487   H         1 1      0.0000
    31 H12B     1.7896   1.6423   1.1268   H         1 1      0.0000
    32 C15      4.5456   1.8437  -0.5908   C.3       1 1      0.0000
    33 H15A     4.0277   2.6056   0.0048   H         1 1      0.0000
    34 H15C     4.0993   1.8425  -1.5929   H         1 1      0.0000
    35 OH       0.6410  -0.0889   3.1005   O.3       1 1      0.0000
    36 OH1     -0.1241  -0.6657   3.3454   H         1 1      0.0000
    37 H22      1.1663  -1.2923   1.5008   H         1 1      0.0000
    38 C16      6.0078   2.2092  -0.6995   C.3       1 1      0.0000
    39 H16C     6.5435   1.4809  -1.3047   H         1 1      0.0000
    40 H16A     6.1276   3.1872  -1.1612   H         1 1      0.0000
    41 H16B     6.4720   2.2396   0.2840   H         1 1      0.0000
@<TRIPOS>BOND
     1     1     2   ar
     2     1     6   ar
     3     1    29    1
     4     2     3   ar
     5     2     7    1
     6     3     4   ar
     7     3    30    1
     8     4     5   ar
     9     4     8    1
    10     5     6   ar
    11     5     9    1
    12     6    10    1
    13     8    11    1
    14     8    12    1
    15     8    28    1
    16    11    13    1
    17    11    26    1
    18    11    27    1
    19    13    14    1
    20    14    15    1
    21    14    16    1
    22    14    31    1
    23    16    17    1
    24    16    20    2
    25    17    18    1
    26    17    19    1
    27    17    32    1
    28    20    21    1
    29    20    22    1
    30    22    23    1
    31    22    24    1
    32    22    25    1
    33    32    33    1
    34    32    34    1
    35    13    35    1
    36    35    36    1
    37    13    37    1
    38    32    38    1
    39    38    39    1
    40    38    40    1
    41    38    41    1
@<TRIPOS>SUBSTRUCTURE
     1 1           1 GROUP             0 ****  ****    0  
@<TRIPOS>MOLECULE
Molecule Name_00001_00202
    41    41     1     0     0
SMALL
NO_CHARGES
****
Generated from the CSD

@<TRIPOS>ATOM
     1 C5      -4.7618   0.2768  -1.2922   C.ar      1 1      0.0000
     2 C4      -4.9448   0.6325   0.0266   C.ar      1 1      0.0000
     3 C3      -3.8892   0.5579   0.9200   C.ar      1 1      0.0000
     4 C8      -2.6378   0.1277   0.5065   C.ar      1 1      0.0000
     5 C7      -2.4685  -0.2280  -0.8227   C.ar      1 1      0.0000
     6 C6      -3.5234  -0.1538  -1.7170   C.ar      1 1      0.0000
     7 H4      -5.9180   0.9717   0.3657   H         1 1      0.0000
     8 C9      -1.4883   0.0434   1.4814   C.3       1 1      0.0000
     9 H7      -1.4975  -0.5688  -1.1667   H         1 1      0.0000
    10 H6      -3.3746  -0.4352  -2.7542   H         1 1      0.0000
    11 C10     -0.1927  -0.4502   0.8404   C.3       1 1      0.0000
    12 H9A     -1.3161   1.0361   1.9154   H         1 1      0.0000
    13 C11      0.9990  -0.5543   1.7784   C.3       1 1      0.0000
    14 C12      2.2420  -1.0722   1.0632   C.3       1 1      0.0000
    15 H12A     2.0700  -2.1098   0.7515   H         1 1      0.0000
    16 C13      2.6053  -0.2550  -0.1392   C.2       1 1      0.0000
    17 C14      3.3136   1.0452   0.0962   C.3       1 1      0.0000
    18 H14B     2.8691   1.5349   0.9714   H         1 1      0.0000
    19 H14A     3.1564   1.7035  -0.7669   H         1 1      0.0000
    20 N        2.3241  -0.6809  -1.3545   N.pl3     1 1      0.0000
    21 HN       1.9247  -1.6166  -1.4269   H         1 1      0.0000
    22 C        2.6480  -0.0132  -2.6068   C.3       1 1      0.0000
    23 H1A      2.8799  -0.7400  -3.3826   H         1 1      0.0000
    24 H1C      1.8107   0.5916  -2.9487   H         1 1      0.0000
    25 H1B      3.5097   0.6395  -2.4854   H         1 1      0.0000
    26 H10A    -0.3780  -1.4405   0.4063   H         1 1      0.0000
    27 H10B     0.0699   0.2310   0.0217   H         1 1      0.0000
    28 H9B     -1.7634  -0.6349   2.2984   H         1 1      0.0000
    29 H5      -5.5884   0.3354  -1.9926   H         1 1      0.0000
    30 H3      -4.0435   0.8396   1.9564   H         1 1      0.0000
    31 H12B     3.0855  -1.0699   1.7647   H         1 1      0.0000
    32 C15      4.8045   0.8866   0.3306   C.3       1 1      0.0000
    33 H15A     5.2554   0.3954  -0.5405   H         1 1      0.0000
    34 H15C     4.9651   0.2379   1.2005   H         1 1      0.0000
    35 OH       1.2767   0.7387   2.3234   O.3       1 1      0.0000
    36 OH1      0.4829   1.0685   2.8125   H         1 1      0.0000
    37 H22      0.7478  -1.2430   2.5999   H         1 1      0.0000
    38 C16      5.4945   2.2105   0.5650   C.3       1 1      0.0000
    39 H16C     5.0814   2.7114   1.4381   H         1 1      0.0000
    40 H16A     6.5602   2.0662   0.7296   H         1 1      0.0000
    41 H16B     5.3700   2.8676  -0.2931   H         1 1      0.0000
@<TRIPOS>BOND
     1     1     2   ar
     2     1     6   ar
     3     1    29    1
     4     2     3   ar
     5     2     7    1
     6     3     4   ar
     7     3    30    1
     8     4     5   ar
     9     4     8    1
    10     5     6   ar
    11     5     9    1
    12     6    10    1
    13     8    11    1
    14     8    12    1
    15     8    28    1
    16    11    13    1
    17    11    26    1
    18    11    27    1
    19    13    14    1
    20    14    15    1
    21    14    16    1
    22    14    31    1
    23    16    17    1
    24    16    20    2
    25    17    18    1
    26    17    19    1
    27    17    32    1
    28    20    21    1
    29    20    22    1
    30    22    23    1
    31    22    24    1
    32    22    25    1
    33    32    33    1
    34    32    34    1
    35    13    35    1
    36    35    36    1
    37    13    37    1
    38    32    38    1
    39    38    39    1
    40    38    40    1
    41    38    41    1
@<TRIPOS>SUBSTRUCTURE
     1 1           1 GROUP             0 ****  ****    0  
@<TRIPOS>MOLECULE
Molecule Name_00001_00203
    41    41     1     0     0
SMALL
NO_CHARGES
****
Generated from the CSD

@<TRIPOS>ATOM
     1 C5      -4.3940   0.6192   1.5849   C.ar      1 1      0.0000
     2 C4      -4.7394  -0.0310   0.4199   C.ar      1 1      0.0000
     3 C3      -3.7715  -0.3246  -0.5261   C.ar      1 1      0.0000
     4 C8      -2.4465   0.0270  -0.3192   C.ar      1 1      0.0000
     5 C7      -2.1135   0.6816   0.8567   C.ar      1 1      0.0000
     6 C6      -3.0807   0.9757   1.8033   C.ar      1 1      0.0000
     7 H4      -5.7721  -0.3133   0.2433   H         1 1      0.0000
     8 C9      -1.3922  -0.2904  -1.3520   C.3       1 1      0.0000
     9 H7      -1.0825   0.9670   1.0376   H         1 1      0.0000
    10 H6      -2.8040   1.4880   2.7188   H         1 1      0.0000
    11 C10      0.0050   0.1737  -0.9456   C.3       1 1      0.0000
    12 H9A     -1.3735  -1.3743  -1.5201   H         1 1      0.0000
    13 C11      1.1068  -0.1209  -1.9508   C.3       1 1      0.0000
    14 C12      2.4464   0.4610  -1.5130   C.3       1 1      0.0000
    15 H12A     2.3713   1.5551  -1.4893   H         1 1      0.0000
    16 C13      2.8813  -0.0279  -0.1649   C.2       1 1      0.0000
    17 C14      2.3694   0.7086   1.0364   C.3       1 1      0.0000
    18 H14B     2.3469   0.0189   1.8891   H         1 1      0.0000
    19 H14A     1.3395   1.0355   0.8478   H         1 1      0.0000
    20 N        3.6700  -1.0778  -0.0501   N.pl3     1 1      0.0000
    21 HN       3.8957  -1.5729  -0.9126   H         1 1      0.0000
    22 C        4.1399  -1.6814   1.1884   C.3       1 1      0.0000
    23 H1A      4.5207  -2.6845   1.0083   H         1 1      0.0000
    24 H1C      4.9403  -1.0888   1.6265   H         1 1      0.0000
    25 H1B      3.3333  -1.7504   1.9152   H         1 1      0.0000
    26 H10A    -0.0269   1.2571  -0.7760   H         1 1      0.0000
    27 H10B     0.2666  -0.3069   0.0052   H         1 1      0.0000
    28 H9B     -1.6663   0.1896  -2.2996   H         1 1      0.0000
    29 H5      -5.1519   0.8492   2.3264   H         1 1      0.0000
    30 H3      -4.0536  -0.8362  -1.4404   H         1 1      0.0000
    31 H12B     3.2111   0.1949  -2.2532   H         1 1      0.0000
    32 C15      3.2101   1.9162   1.4076   C.3       1 1      0.0000
    33 H15A     3.2385   2.6097   0.5581   H         1 1      0.0000
    34 H15C     4.2383   1.5909   1.6083   H         1 1      0.0000
    35 OH       1.2368  -1.5379  -2.0967   O.3       1 1      0.0000
    36 OH1      0.3773  -1.9186  -2.4039   H         1 1      0.0000
    37 H22      0.8294   0.3155  -2.9227   H         1 1      0.0000
    38 C16      2.6734   2.6404   2.6206   C.3       1 1      0.0000
    39 H16C     2.6543   1.9814   3.4861   H         1 1      0.0000
    40 H16A     3.2948   3.5001   2.8628   H         1 1      0.0000
    41 H16B     1.6602   2.9943   2.4415   H         1 1      0.0000
@<TRIPOS>BOND
     1     1     2   ar
     2     1     6   ar
     3     1    29    1
     4     2     3   ar
     5     2     7    1
     6     3     4   ar
     7     3    30    1
     8     4     5   ar
     9     4     8    1
    10     5     6   ar
    11     5     9    1
    12     6    10    1
    13     8    11    1
    14     8    12    1
    15     8    28    1
    16    11    13    1
    17    11    26    1
    18    11    27    1
    19    13    14    1
    20    14    15    1
    21    14    16    1
    22    14    31    1
    23    16    17    1
    24    16    20    2
    25    17    18    1
    26    17    19    1
    27    17    32    1
    28    20    21    1
    29    20    22    1
    30    22    23    1
    31    22    24    1
    32    22    25    1
    33    32    33    1
    34    32    34    1
    35    13    35    1
    36    35    36    1
    37    13    37    1
    38    32    38    1
    39    38    39    1
    40    38    40    1
    41    38    41    1
@<TRIPOS>SUBSTRUCTURE
     1 1           1 GROUP             0 ****  ****    0  
@<TRIPOS>MOLECULE
Molecule Name_00001_00204
    41    41     1     0     0
SMALL
NO_CHARGES
****
Generated from the CSD

@<TRIPOS>ATOM
     1 C5      -4.2844  -0.7349  -1.1197   C.ar      1 1      0.0000
     2 C4      -4.5575  -0.4720   0.2054   C.ar      1 1      0.0000
     3 C3      -3.6573   0.2502   0.9710   C.ar      1 1      0.0000
     4 C8      -2.4738   0.7191   0.4219   C.ar      1 1      0.0000
     5 C7      -2.2117   0.4462  -0.9118   C.ar      1 1      0.0000
     6 C6      -3.1112  -0.2758  -1.6783   C.ar      1 1      0.0000
     7 H4      -5.4797  -0.8316   0.6497   H         1 1      0.0000
     8 C9      -1.4914   1.5035   1.2578   C.3       1 1      0.0000
     9 H7      -1.2905   0.8028  -1.3606   H         1 1      0.0000
    10 H6      -2.8917  -0.4806  -2.7210   H         1 1      0.0000
    11 C10     -0.5036   0.6164   2.0130   C.3       1 1      0.0000
    12 H9A     -0.9323   2.1845   0.6044   H         1 1      0.0000
    13 C11      0.5117  -0.1112   1.1466   C.3       1 1      0.0000
    14 C12      1.5367   0.8451   0.5468   C.3       1 1      0.0000
    15 H12A     2.1188   1.3010   1.3572   H         1 1      0.0000
    16 C13      2.4741   0.1705  -0.4080   C.2       1 1      0.0000
    17 C14      3.5229   1.0182  -1.0631   C.3       1 1      0.0000
    18 H14B     3.0892   1.9991  -1.2940   H         1 1      0.0000
    19 H14A     3.8197   0.5559  -2.0124   H         1 1      0.0000
    20 N        2.3830  -1.1234  -0.6422   N.pl3     1 1      0.0000
    21 HN       1.7016  -1.6390  -0.0854   H         1 1      0.0000
    22 C        3.2434  -1.9127  -1.5116   C.3       1 1      0.0000
    23 H1A      3.3855  -2.9132  -1.1083   H         1 1      0.0000
    24 H1C      2.8069  -2.0063  -2.5038   H         1 1      0.0000
    25 H1B      4.2210  -1.4468  -1.6146   H         1 1      0.0000
    26 H10A     0.0407   1.2407   2.7323   H         1 1      0.0000
    27 H10B    -1.0726  -0.1304   2.5803   H         1 1      0.0000
    28 H9B     -2.0467   2.1146   1.9800   H         1 1      0.0000
    29 H5      -4.9895  -1.3004  -1.7199   H         1 1      0.0000
    30 H3      -3.8812   0.4514   2.0134   H         1 1      0.0000
    31 H12B     1.0096   1.6505   0.0207   H         1 1      0.0000
    32 C15      4.7582   1.2205  -0.2054   C.3       1 1      0.0000
    33 H15A     5.5297   1.7261  -0.7992   H         1 1      0.0000
    34 H15C     5.1536   0.2416   0.0926   H         1 1      0.0000
    35 OH       1.1905  -1.0856   1.9438   O.3       1 1      0.0000
    36 OH1      0.5332  -1.7236   2.3165   H         1 1      0.0000
    37 H22     -0.0186  -0.6235   0.3289   H         1 1      0.0000
    38 C16      4.4716   2.0376   1.0332   C.3       1 1      0.0000
    39 H16C     4.0655   1.4101   1.8238   H         1 1      0.0000
    40 H16A     5.3806   2.5057   1.4052   H         1 1      0.0000
    41 H16B     3.7494   2.8225   0.8188   H         1 1      0.0000
@<TRIPOS>BOND
     1     1     2   ar
     2     1     6   ar
     3     1    29    1
     4     2     3   ar
     5     2     7    1
     6     3     4   ar
     7     3    30    1
     8     4     5   ar
     9     4     8    1
    10     5     6   ar
    11     5     9    1
    12     6    10    1
    13     8    11    1
    14     8    12    1
    15     8    28    1
    16    11    13    1
    17    11    26    1
    18    11    27    1
    19    13    14    1
    20    14    15    1
    21    14    16    1
    22    14    31    1
    23    16    17    1
    24    16    20    2
    25    17    18    1
    26    17    19    1
    27    17    32    1
    28    20    21    1
    29    20    22    1
    30    22    23    1
    31    22    24    1
    32    22    25    1
    33    32    33    1
    34    32    34    1
    35    13    35    1
    36    35    36    1
    37    13    37    1
    38    32    38    1
    39    38    39    1
    40    38    40    1
    41    38    41    1
@<TRIPOS>SUBSTRUCTURE
     1 1           1 GROUP             0 ****  ****    0  
@<TRIPOS>MOLECULE
Molecule Name_00001_00205
    41    41     1     0     0
SMALL
NO_CHARGES
****
Generated from the CSD

@<TRIPOS>ATOM
     1 C5      -4.2589  -1.0680  -0.9907   C.ar      1 1      0.0000
     2 C4      -4.5882  -0.5639   0.2490   C.ar      1 1      0.0000
     3 C3      -3.7495   0.3420   0.8766   C.ar      1 1      0.0000
     4 C8      -2.5721   0.7560   0.2729   C.ar      1 1      0.0000
     5 C7      -2.2530   0.2398  -0.9736   C.ar      1 1      0.0000
     6 C6      -3.0909  -0.6662  -1.6020   C.ar      1 1      0.0000
     7 H4      -5.5064  -0.8776   0.7344   H         1 1      0.0000
     8 C9      -1.6567   1.7411   0.9588   C.3       1 1      0.0000
     9 H7      -1.3354   0.5495  -1.4629   H         1 1      0.0000
    10 H6      -2.8273  -1.0606  -2.5779   H         1 1      0.0000
    11 C10     -0.6533   1.0744   1.8978   C.3       1 1      0.0000
    12 H9A     -1.1092   2.3087   0.1962   H         1 1      0.0000
    13 C11      0.4239   0.2454   1.2170   C.3       1 1      0.0000
    14 C12      1.4214   1.1180   0.4632   C.3       1 1      0.0000
    15 H12A     1.9524   1.7566   1.1799   H         1 1      0.0000
    16 C13      2.4230   0.3193  -0.3144   C.2       1 1      0.0000
    17 C14      3.4650   1.0756  -1.0824   C.3       1 1      0.0000
    18 H14B     2.9961   1.9557  -1.5394   H         1 1      0.0000
    19 H14A     3.8447   0.4436  -1.8944   H         1 1      0.0000
    20 N        2.3910  -0.9984  -0.3024   N.pl3     1 1      0.0000
    21 HN       1.7071  -1.4305   0.3186   H         1 1      0.0000
    22 C        3.3164  -1.8970  -0.9770   C.3       1 1      0.0000
    23 H1A      3.4989  -2.7852  -0.3756   H         1 1      0.0000
    24 H1C      2.9144  -2.2146  -1.9368   H         1 1      0.0000
    25 H1B      4.2709  -1.4065  -1.1555   H         1 1      0.0000
    26 H10A    -0.1637   1.8564   2.4913   H         1 1      0.0000
    27 H10B    -1.2046   0.4249   2.5889   H         1 1      0.0000
    28 H9B     -2.2642   2.4521   1.5321   H         1 1      0.0000
    29 H5      -4.9158  -1.7776  -1.4828   H         1 1      0.0000
    30 H3      -4.0173   0.7327   1.8528   H         1 1      0.0000
    31 H12B     0.8744   1.7731  -0.2261   H         1 1      0.0000
    32 C15      4.6318   1.5334  -0.2268   C.3       1 1      0.0000
    33 H15A     4.2519   2.1382   0.6058   H         1 1      0.0000
    34 H15C     5.2915   2.1702  -0.8290   H         1 1      0.0000
    35 OH       1.1215  -0.5150   2.2075   O.3       1 1      0.0000
    36 OH1      0.4833  -1.1010   2.6842   H         1 1      0.0000
    37 H22     -0.0539  -0.4456   0.5054   H         1 1      0.0000
    38 C16      5.4297   0.3751   0.3259   C.3       1 1      0.0000
    39 H16C     5.8380  -0.2313  -0.4799   H         1 1      0.0000
    40 H16A     6.2580   0.7327   0.9341   H         1 1      0.0000
    41 H16B     4.8041  -0.2629   0.9466   H         1 1      0.0000
@<TRIPOS>BOND
     1     1     2   ar
     2     1     6   ar
     3     1    29    1
     4     2     3   ar
     5     2     7    1
     6     3     4   ar
     7     3    30    1
     8     4     5   ar
     9     4     8    1
    10     5     6   ar
    11     5     9    1
    12     6    10    1
    13     8    11    1
    14     8    12    1
    15     8    28    1
    16    11    13    1
    17    11    26    1
    18    11    27    1
    19    13    14    1
    20    14    15    1
    21    14    16    1
    22    14    31    1
    23    16    17    1
    24    16    20    2
    25    17    18    1
    26    17    19    1
    27    17    32    1
    28    20    21    1
    29    20    22    1
    30    22    23    1
    31    22    24    1
    32    22    25    1
    33    32    33    1
    34    32    34    1
    35    13    35    1
    36    35    36    1
    37    13    37    1
    38    32    38    1
    39    38    39    1
    40    38    40    1
    41    38    41    1
@<TRIPOS>SUBSTRUCTURE
     1 1           1 GROUP             0 ****  ****    0  
@<TRIPOS>MOLECULE
Molecule Name_00001_00206
    41    41     1     0     0
SMALL
NO_CHARGES
****
Generated from the CSD

@<TRIPOS>ATOM
     1 C5      -3.9399   0.2237  -1.5077   C.ar      1 1      0.0000
     2 C4      -4.3837  -0.2092  -0.2768   C.ar      1 1      0.0000
     3 C3      -3.5822  -0.0617   0.8429   C.ar      1 1      0.0000
     4 C8      -2.3278   0.5209   0.7467   C.ar      1 1      0.0000
     5 C7      -1.8938   0.9506  -0.4979   C.ar      1 1      0.0000
     6 C6      -2.6946   0.8036  -1.6183   C.ar      1 1      0.0000
     7 H4      -5.3633  -0.6666  -0.1848   H         1 1      0.0000
     8 C9      -1.4531   0.6785   1.9669   C.3       1 1      0.0000
     9 H7      -0.9147   1.4078  -0.5954   H         1 1      0.0000
    10 H6      -2.3407   1.1456  -2.5852   H         1 1      0.0000
    11 C10     -0.5910  -0.5502   2.2500   C.3       1 1      0.0000
    12 H9A     -0.7997   1.5484   1.8265   H         1 1      0.0000
    13 C11      0.5187  -0.8123   1.2446   C.3       1 1      0.0000
    14 C12      1.6312   0.2258   1.3422   C.3       1 1      0.0000
    15 H12A     2.1057   0.1512   2.3284   H         1 1      0.0000
    16 C13      2.6780   0.0592   0.2829   C.2       1 1      0.0000
    17 C14      3.8313   1.0171   0.2932   C.3       1 1      0.0000
    18 H14B     4.6865   0.5439  -0.2048   H         1 1      0.0000
    19 H14A     4.1231   1.2198   1.3309   H         1 1      0.0000
    20 N        2.5879  -0.9074  -0.6087   N.pl3     1 1      0.0000
    21 HN       1.8207  -1.5682  -0.4863   H         1 1      0.0000
    22 C        3.5432  -1.2082  -1.6650   C.3       1 1      0.0000
    23 H1A      3.3879  -2.2137  -2.0506   H         1 1      0.0000
    24 H1C      3.4370  -0.5084  -2.4913   H         1 1      0.0000
    25 H1B      4.5637  -1.1413  -1.2940   H         1 1      0.0000
    26 H10A    -0.1376  -0.4325   3.2420   H         1 1      0.0000
    27 H10B    -1.2438  -1.4312   2.2822   H         1 1      0.0000
    28 H9B     -2.0897   0.8763   2.8381   H         1 1      0.0000
    29 H5      -4.5677   0.1086  -2.3851   H         1 1      0.0000
    30 H3      -3.9404  -0.4063   1.8074   H         1 1      0.0000
    31 H12B     1.1937   1.2282   1.2574   H         1 1      0.0000
    32 C15      3.5295   2.3328  -0.4002   C.3       1 1      0.0000
    33 H15A     4.3740   3.0177  -0.2556   H         1 1      0.0000
    34 H15C     2.6458   2.7891   0.0626   H         1 1      0.0000
    35 OH       1.0675  -2.1111   1.4853   O.3       1 1      0.0000
    36 OH1      0.3552  -2.7917   1.3998   H         1 1      0.0000
    37 H22      0.0942  -0.7851   0.2291   H         1 1      0.0000
    38 C16      3.2802   2.1593  -1.8806   C.3       1 1      0.0000
    39 H16C     2.4321   1.5003  -2.0543   H         1 1      0.0000
    40 H16A     3.0670   3.1171  -2.3506   H         1 1      0.0000
    41 H16B     4.1506   1.7278  -2.3703   H         1 1      0.0000
@<TRIPOS>BOND
     1     1     2   ar
     2     1     6   ar
     3     1    29    1
     4     2     3   ar
     5     2     7    1
     6     3     4   ar
     7     3    30    1
     8     4     5   ar
     9     4     8    1
    10     5     6   ar
    11     5     9    1
    12     6    10    1
    13     8    11    1
    14     8    12    1
    15     8    28    1
    16    11    13    1
    17    11    26    1
    18    11    27    1
    19    13    14    1
    20    14    15    1
    21    14    16    1
    22    14    31    1
    23    16    17    1
    24    16    20    2
    25    17    18    1
    26    17    19    1
    27    17    32    1
    28    20    21    1
    29    20    22    1
    30    22    23    1
    31    22    24    1
    32    22    25    1
    33    32    33    1
    34    32    34    1
    35    13    35    1
    36    35    36    1
    37    13    37    1
    38    32    38    1
    39    38    39    1
    40    38    40    1
    41    38    41    1
@<TRIPOS>SUBSTRUCTURE
     1 1           1 GROUP             0 ****  ****    0  
@<TRIPOS>MOLECULE
Molecule Name_00001_00207
    41    41     1     0     0
SMALL
NO_CHARGES
****
Generated from the CSD

@<TRIPOS>ATOM
     1 C5      -3.9949   0.2827  -1.3863   C.ar      1 1      0.0000
     2 C4      -4.3740  -0.1483  -0.1334   C.ar      1 1      0.0000
     3 C3      -3.5021  -0.0300   0.9362   C.ar      1 1      0.0000
     4 C8      -2.2413   0.5212   0.7670   C.ar      1 1      0.0000
     5 C7      -1.8729   0.9494  -0.4991   C.ar      1 1      0.0000
     6 C6      -2.7440   0.8315  -1.5693   C.ar      1 1      0.0000
     7 H4      -5.3576  -0.5814   0.0155   H         1 1      0.0000
     8 C9      -1.2901   0.6470   1.9324   C.3       1 1      0.0000
     9 H7      -0.8901   1.3823  -0.6534   H         1 1      0.0000
    10 H6      -2.4410   1.1719  -2.5539   H         1 1      0.0000
    11 C10     -0.4444  -0.6053   2.1548   C.3       1 1      0.0000
    12 H9A     -0.6241   1.5011   1.7578   H         1 1      0.0000
    13 C11      0.5949  -0.8878   1.0818   C.3       1 1      0.0000
    14 C12      1.7377   0.1209   1.1176   C.3       1 1      0.0000
    15 H12A     2.2684   0.0276   2.0731   H         1 1      0.0000
    16 C13      2.7145  -0.0654  -0.0035   C.2       1 1      0.0000
    17 C14      3.8995   0.8520  -0.0483   C.3       1 1      0.0000
    18 H14B     4.7165   0.3462  -0.5775   H         1 1      0.0000
    19 H14A     4.2409   1.0509   0.9749   H         1 1      0.0000
    20 N        2.5386  -1.0146  -0.9010   N.pl3     1 1      0.0000
    21 HN       1.7570  -1.6504  -0.7425   H         1 1      0.0000
    22 C        3.4195  -1.3319  -2.0155   C.3       1 1      0.0000
    23 H1A      3.2443  -2.3459  -2.3690   H         1 1      0.0000
    24 H1C      3.2509  -0.6498  -2.8462   H         1 1      0.0000
    25 H1B      4.4630  -1.2520  -1.7185   H         1 1      0.0000
    26 H10A     0.0716  -0.5069   3.1178   H         1 1      0.0000
    27 H10B    -1.1166  -1.4697   2.2213   H         1 1      0.0000
    28 H9B     -1.8670   0.8543   2.8422   H         1 1      0.0000
    29 H5      -4.6778   0.1904  -2.2244   H         1 1      0.0000
    30 H3      -3.8097  -0.3728   1.9186   H         1 1      0.0000
    31 H12B     1.3220   1.1347   1.0643   H         1 1      0.0000
    32 C15      3.6146   2.1728  -0.7389   C.3       1 1      0.0000
    33 H15A     3.2212   1.9759  -1.7438   H         1 1      0.0000
    34 H15C     4.5527   2.7303  -0.8504   H         1 1      0.0000
    35 OH       1.1235  -2.2019   1.2804   O.3       1 1      0.0000
    36 OH1      0.3899  -2.8636   1.2344   H         1 1      0.0000
    37 H22      0.1101  -0.8419   0.0944   H         1 1      0.0000
    38 C16      2.6224   3.0193   0.0245   C.3       1 1      0.0000
    39 H16C     2.7701   2.9137   1.0972   H         1 1      0.0000
    40 H16A     2.7352   4.0708  -0.2313   H         1 1      0.0000
    41 H16B     1.6020   2.7216  -0.2080   H         1 1      0.0000
@<TRIPOS>BOND
     1     1     2   ar
     2     1     6   ar
     3     1    29    1
     4     2     3   ar
     5     2     7    1
     6     3     4   ar
     7     3    30    1
     8     4     5   ar
     9     4     8    1
    10     5     6   ar
    11     5     9    1
    12     6    10    1
    13     8    11    1
    14     8    12    1
    15     8    28    1
    16    11    13    1
    17    11    26    1
    18    11    27    1
    19    13    14    1
    20    14    15    1
    21    14    16    1
    22    14    31    1
    23    16    17    1
    24    16    20    2
    25    17    18    1
    26    17    19    1
    27    17    32    1
    28    20    21    1
    29    20    22    1
    30    22    23    1
    31    22    24    1
    32    22    25    1
    33    32    33    1
    34    32    34    1
    35    13    35    1
    36    35    36    1
    37    13    37    1
    38    32    38    1
    39    38    39    1
    40    38    40    1
    41    38    41    1
@<TRIPOS>SUBSTRUCTURE
     1 1           1 GROUP             0 ****  ****    0  
@<TRIPOS>MOLECULE
Molecule Name_00001_00208
    41    41     1     0     0
SMALL
NO_CHARGES
****
Generated from the CSD

@<TRIPOS>ATOM
     1 C5      -5.6000   0.0821  -0.3617   C.ar      1 1      0.0000
     2 C4      -5.1441  -0.7244   0.6587   C.ar      1 1      0.0000
     3 C3      -3.8299  -0.6305   1.0852   C.ar      1 1      0.0000
     4 C8      -2.9553   0.2709   0.4980   C.ar      1 1      0.0000
     5 C7      -3.4272   1.0750  -0.5281   C.ar      1 1      0.0000
     6 C6      -4.7413   0.9819  -0.9553   C.ar      1 1      0.0000
     7 H4      -5.8163  -1.4345   1.1288   H         1 1      0.0000
     8 C9      -1.5219   0.3706   0.9610   C.3       1 1      0.0000
     9 H7      -2.7588   1.7860  -1.0022   H         1 1      0.0000
    10 H6      -5.0955   1.6187  -1.7592   H         1 1      0.0000
    11 C10     -0.5134   0.0000  -0.1247   C.3       1 1      0.0000
    12 H9A     -1.3262   1.3971   1.2945   H         1 1      0.0000
    13 C11      0.9473   0.0832   0.2881   C.3       1 1      0.0000
    14 C12      1.8826  -0.3205  -0.8463   C.3       1 1      0.0000
    15 H12A     1.8893   0.4721  -1.6047   H         1 1      0.0000
    16 C13      3.2868  -0.5659  -0.3843   C.2       1 1      0.0000
    17 C14      3.7994   0.2733   0.7475   C.3       1 1      0.0000
    18 H14B     4.6593  -0.2347   1.2012   H         1 1      0.0000
    19 H14A     3.0213   0.3571   1.5160   H         1 1      0.0000
    20 N        4.0289  -1.4989  -0.9466   N.pl3     1 1      0.0000
    21 HN       3.5710  -2.0834  -1.6457   H         1 1      0.0000
    22 C        5.3878  -1.8689  -0.5783   C.3       1 1      0.0000
    23 H1A      5.6427  -2.8480  -0.9784   H         1 1      0.0000
    24 H1C      6.1026  -1.1472  -0.9680   H         1 1      0.0000
    25 H1B      5.4990  -1.9052   0.5032   H         1 1      0.0000
    26 H10A    -0.7215  -1.0257  -0.4534   H         1 1      0.0000
    27 H10B    -0.6688   0.6652  -0.9831   H         1 1      0.0000
    28 H9B     -1.3790  -0.2933   1.8225   H         1 1      0.0000
    29 H5      -6.6297   0.0090  -0.6959   H         1 1      0.0000
    30 H3      -3.4804  -1.2703   1.8888   H         1 1      0.0000
    31 H12B     1.4980  -1.2322  -1.3199   H         1 1      0.0000
    32 C15      4.2244   1.6664   0.3218   C.3       1 1      0.0000
    33 H15A     3.3696   2.1790  -0.1366   H         1 1      0.0000
    34 H15C     5.0123   1.5861  -0.4372   H         1 1      0.0000
    35 OH       1.2433   1.4253   0.6842   O.3       1 1      0.0000
    36 OH1      0.6581   1.6839   1.4383   H         1 1      0.0000
    37 H22      1.1151  -0.5884   1.1442   H         1 1      0.0000
    38 C16      4.7340   2.4921   1.4803   C.3       1 1      0.0000
    39 H16C     5.5976   2.0175   1.9417   H         1 1      0.0000
    40 H16A     5.0308   3.4840   1.1460   H         1 1      0.0000
    41 H16B     3.9640   2.6069   2.2403   H         1 1      0.0000
@<TRIPOS>BOND
     1     1     2   ar
     2     1     6   ar
     3     1    29    1
     4     2     3   ar
     5     2     7    1
     6     3     4   ar
     7     3    30    1
     8     4     5   ar
     9     4     8    1
    10     5     6   ar
    11     5     9    1
    12     6    10    1
    13     8    11    1
    14     8    12    1
    15     8    28    1
    16    11    13    1
    17    11    26    1
    18    11    27    1
    19    13    14    1
    20    14    15    1
    21    14    16    1
    22    14    31    1
    23    16    17    1
    24    16    20    2
    25    17    18    1
    26    17    19    1
    27    17    32    1
    28    20    21    1
    29    20    22    1
    30    22    23    1
    31    22    24    1
    32    22    25    1
    33    32    33    1
    34    32    34    1
    35    13    35    1
    36    35    36    1
    37    13    37    1
    38    32    38    1
    39    38    39    1
    40    38    40    1
    41    38    41    1
@<TRIPOS>SUBSTRUCTURE
     1 1           1 GROUP             0 ****  ****    0  
@<TRIPOS>MOLECULE
Molecule Name_00001_00209
    41    41     1     0     0
SMALL
NO_CHARGES
****
Generated from the CSD

@<TRIPOS>ATOM
     1 C5      -4.8997  -0.2947  -1.1412   C.ar      1 1      0.0000
     2 C4      -4.9757  -0.6491   0.1884   C.ar      1 1      0.0000
     3 C3      -3.8620  -0.5342   1.0036   C.ar      1 1      0.0000
     4 C8      -2.6591  -0.0630   0.5005   C.ar      1 1      0.0000
     5 C7      -2.5969   0.2887  -0.8391   C.ar      1 1      0.0000
     6 C6      -3.7100   0.1741  -1.6552   C.ar      1 1      0.0000
     7 H4      -5.9100  -1.0191   0.5975   H         1 1      0.0000
     8 C9      -1.4446   0.0591   1.3886   C.3       1 1      0.0000
     9 H7      -1.6647   0.6582  -1.2533   H         1 1      0.0000
    10 H6      -3.6452   0.4541  -2.7014   H         1 1      0.0000
    11 C10     -0.2167   0.5961   0.6558   C.3       1 1      0.0000
    12 H9A     -1.6814   0.7275   2.2256   H         1 1      0.0000
    13 C11      1.0366   0.7393   1.5041   C.3       1 1      0.0000
    14 C12      2.2184   1.2543   0.6900   C.3       1 1      0.0000
    15 H12A     3.0267   1.5417   1.3738   H         1 1      0.0000
    16 C13      2.7399   0.2422  -0.2843   C.2       1 1      0.0000
    17 C14      3.8752   0.6567  -1.1714   C.3       1 1      0.0000
    18 H14B     3.7254   1.7017  -1.4699   H         1 1      0.0000
    19 H14A     3.8623   0.0470  -2.0831   H         1 1      0.0000
    20 N        2.2247  -0.9698  -0.3388   N.pl3     1 1      0.0000
    21 HN       1.5190  -1.1954   0.3621   H         1 1      0.0000
    22 C        2.6529  -2.0589  -1.2045   C.3       1 1      0.0000
    23 H1A      2.5490  -3.0169  -0.6993   H         1 1      0.0000
    24 H1C      2.0537  -2.0879  -2.1122   H         1 1      0.0000
    25 H1B      3.6954  -1.9381  -1.4910   H         1 1      0.0000
    26 H10A     0.0077  -0.0770  -0.1808   H         1 1      0.0000
    27 H10B    -0.4657   1.5792   0.2377   H         1 1      0.0000
    28 H9B     -1.2081  -0.9275   1.8060   H         1 1      0.0000
    29 H5      -5.7720  -0.3844  -1.7801   H         1 1      0.0000
    30 H3      -3.9318  -0.8163   2.0490   H         1 1      0.0000
    31 H12B     1.9105   2.1528   0.1411   H         1 1      0.0000
    32 C15      5.2354   0.5280  -0.5111   C.3       1 1      0.0000
    33 H15A     6.0170   0.7136  -1.2581   H         1 1      0.0000
    34 H15C     5.3612  -0.4979  -0.1434   H         1 1      0.0000
    35 OH       0.7724   1.6506   2.5745   O.3       1 1      0.0000
    36 OH1      0.0219   1.3099   3.1209   H         1 1      0.0000
    37 H22      1.2962  -0.2438   1.9263   H         1 1      0.0000
    38 C16      5.4105   1.4922   0.6393   C.3       1 1      0.0000
    39 H16C     4.9838   1.0839   1.5531   H         1 1      0.0000
    40 H16A     6.4649   1.6925   0.8176   H         1 1      0.0000
    41 H16B     4.9167   2.4384   0.4280   H         1 1      0.0000
@<TRIPOS>BOND
     1     1     2   ar
     2     1     6   ar
     3     1    29    1
     4     2     3   ar
     5     2     7    1
     6     3     4   ar
     7     3    30    1
     8     4     5   ar
     9     4     8    1
    10     5     6   ar
    11     5     9    1
    12     6    10    1
    13     8    11    1
    14     8    12    1
    15     8    28    1
    16    11    13    1
    17    11    26    1
    18    11    27    1
    19    13    14    1
    20    14    15    1
    21    14    16    1
    22    14    31    1
    23    16    17    1
    24    16    20    2
    25    17    18    1
    26    17    19    1
    27    17    32    1
    28    20    21    1
    29    20    22    1
    30    22    23    1
    31    22    24    1
    32    22    25    1
    33    32    33    1
    34    32    34    1
    35    13    35    1
    36    35    36    1
    37    13    37    1
    38    32    38    1
    39    38    39    1
    40    38    40    1
    41    38    41    1
@<TRIPOS>SUBSTRUCTURE
     1 1           1 GROUP             0 ****  ****    0  
@<TRIPOS>MOLECULE
Molecule Name_00001_00210
    41    41     1     0     0
SMALL
NO_CHARGES
****
Generated from the CSD

@<TRIPOS>ATOM
     1 C5      -4.8611  -0.6914  -1.0508   C.ar      1 1      0.0000
     2 C4      -4.9520  -0.7284   0.3239   C.ar      1 1      0.0000
     3 C3      -3.8651  -0.3683   1.1029   C.ar      1 1      0.0000
     4 C8      -2.6743   0.0341   0.5179   C.ar      1 1      0.0000
     5 C7      -2.5966   0.0654  -0.8660   C.ar      1 1      0.0000
     6 C6      -3.6830  -0.2946  -1.6458   C.ar      1 1      0.0000
     7 H4      -5.8773  -1.0405   0.7969   H         1 1      0.0000
     8 C9      -1.4886   0.4234   1.3673   C.3       1 1      0.0000
     9 H7      -1.6734   0.3758  -1.3440   H         1 1      0.0000
    10 H6      -3.6065  -0.2641  -2.7277   H         1 1      0.0000
    11 C10     -0.2705   0.8372   0.5439   C.3       1 1      0.0000
    12 H9A     -1.7771   1.2559   2.0210   H         1 1      0.0000
    13 C11      0.9538   1.2399   1.3501   C.3       1 1      0.0000
    14 C12      2.1297   1.6087   0.4524   C.3       1 1      0.0000
    15 H12A     2.9036   2.0967   1.0577   H         1 1      0.0000
    16 C13      2.7279   0.4224  -0.2408   C.2       1 1      0.0000
    17 C14      3.8744   0.6719  -1.1741   C.3       1 1      0.0000
    18 H14B     3.6748   1.5906  -1.7394   H         1 1      0.0000
    19 H14A     3.9397  -0.1526  -1.8945   H         1 1      0.0000
    20 N        2.2676  -0.7924  -0.0178   N.pl3     1 1      0.0000
    21 HN       1.5483  -0.8810   0.6998   H         1 1      0.0000
    22 C        2.7722  -2.0324  -0.5896   C.3       1 1      0.0000
    23 H1A      2.7137  -2.8426   0.1342   H         1 1      0.0000
    24 H1C      2.1920  -2.3173  -1.4647   H         1 1      0.0000
    25 H1B      3.8112  -1.9235  -0.8932   H         1 1      0.0000
    26 H10A     0.0058  -0.0003  -0.1085   H         1 1      0.0000
    27 H10B    -0.5559   1.6810  -0.0964   H         1 1      0.0000
    28 H9B     -1.2155  -0.4245   2.0075   H         1 1      0.0000
    29 H5      -5.7125  -0.9732  -1.6614   H         1 1      0.0000
    30 H3      -3.9465  -0.4013   2.1843   H         1 1      0.0000
    31 H12B     1.7917   2.3300  -0.3018   H         1 1      0.0000
    32 C15      5.2090   0.8150  -0.4660   C.3       1 1      0.0000
    33 H15A     5.1368   1.6170   0.2790   H         1 1      0.0000
    34 H15C     5.9745   1.1050  -1.1962   H         1 1      0.0000
    35 OH       0.6214   2.3626   2.1716   O.3       1 1      0.0000
    36 OH1     -0.1255   2.1220   2.7735   H         1 1      0.0000
    37 H22      1.2488   0.3982   1.9957   H         1 1      0.0000
    38 C16      5.6364  -0.4617   0.2202   C.3       1 1      0.0000
    39 H16C     5.7375  -1.2713  -0.4996   H         1 1      0.0000
    40 H16A     6.5945  -0.3296   0.7185   H         1 1      0.0000
    41 H16B     4.9045  -0.7618   0.9672   H         1 1      0.0000
@<TRIPOS>BOND
     1     1     2   ar
     2     1     6   ar
     3     1    29    1
     4     2     3   ar
     5     2     7    1
     6     3     4   ar
     7     3    30    1
     8     4     5   ar
     9     4     8    1
    10     5     6   ar
    11     5     9    1
    12     6    10    1
    13     8    11    1
    14     8    12    1
    15     8    28    1
    16    11    13    1
    17    11    26    1
    18    11    27    1
    19    13    14    1
    20    14    15    1
    21    14    16    1
    22    14    31    1
    23    16    17    1
    24    16    20    2
    25    17    18    1
    26    17    19    1
    27    17    32    1
    28    20    21    1
    29    20    22    1
    30    22    23    1
    31    22    24    1
    32    22    25    1
    33    32    33    1
    34    32    34    1
    35    13    35    1
    36    35    36    1
    37    13    37    1
    38    32    38    1
    39    38    39    1
    40    38    40    1
    41    38    41    1
@<TRIPOS>SUBSTRUCTURE
     1 1           1 GROUP             0 ****  ****    0  
@<TRIPOS>MOLECULE
Molecule Name_00001_00211
    41    41     1     0     0
SMALL
NO_CHARGES
****
Generated from the CSD

@<TRIPOS>ATOM
     1 C5      -4.5385   0.5545  -1.2336   C.ar      1 1      0.0000
     2 C4      -4.7533  -0.3739  -0.2380   C.ar      1 1      0.0000
     3 C3      -3.7194  -0.7381   0.6083   C.ar      1 1      0.0000
     4 C8      -2.4584  -0.1785   0.4708   C.ar      1 1      0.0000
     5 C7      -2.2564   0.7532  -0.5358   C.ar      1 1      0.0000
     6 C6      -3.2897   1.1181  -1.3826   C.ar      1 1      0.0000
     7 H4      -5.7347  -0.8206  -0.1170   H         1 1      0.0000
     8 C9      -1.3308  -0.5782   1.3915   C.3       1 1      0.0000
     9 H7      -1.2766   1.2021  -0.6616   H         1 1      0.0000
    10 H6      -3.1156   1.8492  -2.1652   H         1 1      0.0000
    11 C10     -0.0208   0.1449   1.0849   C.3       1 1      0.0000
    12 H9A     -1.6233  -0.3633   2.4267   H         1 1      0.0000
    13 C11      1.1499  -0.2204   1.9833   C.3       1 1      0.0000
    14 C12      2.4218   0.5231   1.5904   C.3       1 1      0.0000
    15 H12A     3.1679   0.4021   2.3854   H         1 1      0.0000
    16 C13      3.0035   0.0392   0.2970   C.2       1 1      0.0000
    17 C14      4.2419   0.7208  -0.2026   C.3       1 1      0.0000
    18 H14B     4.7819   0.0305  -0.8624   H         1 1      0.0000
    19 H14A     4.8973   0.9472   0.6472   H         1 1      0.0000
    20 N        2.4499  -0.9606  -0.3598   N.pl3     1 1      0.0000
    21 HN       1.6655  -1.4254   0.0974   H         1 1      0.0000
    22 C        2.9245  -1.5549  -1.6009   C.3       1 1      0.0000
    23 H1A      2.4414  -2.5134  -1.7789   H         1 1      0.0000
    24 H1C      2.7091  -0.9049  -2.4464   H         1 1      0.0000
    25 H1B      3.9994  -1.7186  -1.5651   H         1 1      0.0000
    26 H10A     0.2592  -0.0733   0.0470   H         1 1      0.0000
    27 H10B    -0.1946   1.2251   1.1653   H         1 1      0.0000
    28 H9B     -1.1694  -1.6600   1.3080   H         1 1      0.0000
    29 H5      -5.3483   0.8403  -1.8967   H         1 1      0.0000
    30 H3      -3.8984  -1.4704   1.3887   H         1 1      0.0000
    31 H12B     2.1980   1.5935   1.5029   H         1 1      0.0000
    32 C15      3.9600   2.0031  -0.9635   C.3       1 1      0.0000
    33 H15A     4.9102   2.4984  -1.1983   H         1 1      0.0000
    34 H15C     3.3789   2.6800  -0.3251   H         1 1      0.0000
    35 OH       0.8171   0.1032   3.3362   O.3       1 1      0.0000
    36 OH1      0.0060  -0.3946   3.6050   H         1 1      0.0000
    37 H22      1.3330  -1.3035   1.9085   H         1 1      0.0000
    38 C16      3.1998   1.7562  -2.2461   C.3       1 1      0.0000
    39 H16C     2.2411   1.2843  -2.0414   H         1 1      0.0000
    40 H16A     3.0124   2.6915  -2.7694   H         1 1      0.0000
    41 H16B     3.7640   1.1039  -2.9093   H         1 1      0.0000
@<TRIPOS>BOND
     1     1     2   ar
     2     1     6   ar
     3     1    29    1
     4     2     3   ar
     5     2     7    1
     6     3     4   ar
     7     3    30    1
     8     4     5   ar
     9     4     8    1
    10     5     6   ar
    11     5     9    1
    12     6    10    1
    13     8    11    1
    14     8    12    1
    15     8    28    1
    16    11    13    1
    17    11    26    1
    18    11    27    1
    19    13    14    1
    20    14    15    1
    21    14    16    1
    22    14    31    1
    23    16    17    1
    24    16    20    2
    25    17    18    1
    26    17    19    1
    27    17    32    1
    28    20    21    1
    29    20    22    1
    30    22    23    1
    31    22    24    1
    32    22    25    1
    33    32    33    1
    34    32    34    1
    35    13    35    1
    36    35    36    1
    37    13    37    1
    38    32    38    1
    39    38    39    1
    40    38    40    1
    41    38    41    1
@<TRIPOS>SUBSTRUCTURE
     1 1           1 GROUP             0 ****  ****    0  
@<TRIPOS>MOLECULE
Molecule Name_00001_00212
    41    41     1     0     0
SMALL
NO_CHARGES
****
Generated from the CSD

@<TRIPOS>ATOM
     1 C5      -4.6053   0.6810  -1.1100   C.ar      1 1      0.0000
     2 C4      -4.7986  -0.2972  -0.1585   C.ar      1 1      0.0000
     3 C3      -3.7365  -0.7344   0.6152   C.ar      1 1      0.0000
     4 C8      -2.4685  -0.1992   0.4484   C.ar      1 1      0.0000
     5 C7      -2.2884   0.7831  -0.5133   C.ar      1 1      0.0000
     6 C6      -3.3498   1.2211  -1.2875   C.ar      1 1      0.0000
     7 H4      -5.7851  -0.7256  -0.0154   H         1 1      0.0000
     8 C9      -1.3104  -0.6785   1.2897   C.3       1 1      0.0000
     9 H7      -1.3037   1.2141  -0.6610   H         1 1      0.0000
    10 H6      -3.1927   1.9911  -2.0356   H         1 1      0.0000
    11 C10      0.0032   0.0284   0.9611   C.3       1 1      0.0000
    12 H9A     -1.5481  -0.5158   2.3483   H         1 1      0.0000
    13 C11      1.2042  -0.4164   1.7800   C.3       1 1      0.0000
    14 C12      2.4764   0.3156   1.3671   C.3       1 1      0.0000
    15 H12A     3.2538   0.1358   2.1200   H         1 1      0.0000
    16 C13      2.9871  -0.1150   0.0257   C.2       1 1      0.0000
    17 C14      4.2261   0.5533  -0.4901   C.3       1 1      0.0000
    18 H14B     4.7317  -0.1296  -1.1839   H         1 1      0.0000
    19 H14A     4.9099   0.7413   0.3466   H         1 1      0.0000
    20 N        2.3728  -1.0593  -0.6588   N.pl3     1 1      0.0000
    21 HN       1.5928  -1.5232  -0.1935   H         1 1      0.0000
    22 C        2.7749  -1.5995  -1.9493   C.3       1 1      0.0000
    23 H1A      2.3303  -2.5789  -2.1128   H         1 1      0.0000
    24 H1C      2.4568  -0.9440  -2.7574   H         1 1      0.0000
    25 H1B      3.8563  -1.7045  -2.0046   H         1 1      0.0000
    26 H10A     0.2281  -0.1372  -0.0998   H         1 1      0.0000
    27 H10B    -0.1371   1.1062   1.1099   H         1 1      0.0000
    28 H9B     -1.1828  -1.7574   1.1383   H         1 1      0.0000
    29 H5      -5.4372   1.0240  -1.7162   H         1 1      0.0000
    30 H3      -3.8988  -1.5054   1.3612   H         1 1      0.0000
    31 H12B     2.2773   1.3941   1.3441   H         1 1      0.0000
    32 C15      3.9520   1.8625  -1.2068   C.3       1 1      0.0000
    33 H15A     3.2247   1.6879  -2.0093   H         1 1      0.0000
    34 H15C     4.8801   2.2210  -1.6688   H         1 1      0.0000
    35 OH       0.9447  -0.1610   3.1632   O.3       1 1      0.0000
    36 OH1      0.1337  -0.6526   3.4435   H         1 1      0.0000
    37 H22      1.3531  -1.4978   1.6370   H         1 1      0.0000
    38 C16      3.4175   2.9270  -0.2768   C.3       1 1      0.0000
    39 H16C     3.8702   2.8409   0.7087   H         1 1      0.0000
    40 H16A     3.6336   3.9208  -0.6634   H         1 1      0.0000
    41 H16B     2.3393   2.8344  -0.1638   H         1 1      0.0000
@<TRIPOS>BOND
     1     1     2   ar
     2     1     6   ar
     3     1    29    1
     4     2     3   ar
     5     2     7    1
     6     3     4   ar
     7     3    30    1
     8     4     5   ar
     9     4     8    1
    10     5     6   ar
    11     5     9    1
    12     6    10    1
    13     8    11    1
    14     8    12    1
    15     8    28    1
    16    11    13    1
    17    11    26    1
    18    11    27    1
    19    13    14    1
    20    14    15    1
    21    14    16    1
    22    14    31    1
    23    16    17    1
    24    16    20    2
    25    17    18    1
    26    17    19    1
    27    17    32    1
    28    20    21    1
    29    20    22    1
    30    22    23    1
    31    22    24    1
    32    22    25    1
    33    32    33    1
    34    32    34    1
    35    13    35    1
    36    35    36    1
    37    13    37    1
    38    32    38    1
    39    38    39    1
    40    38    40    1
    41    38    41    1
@<TRIPOS>SUBSTRUCTURE
     1 1           1 GROUP             0 ****  ****    0  
@<TRIPOS>MOLECULE
Molecule Name_00001_00213
    41    41     1     0     0
SMALL
NO_CHARGES
****
Generated from the CSD

@<TRIPOS>ATOM
     1 C5      -4.7951  -0.2628  -1.0674   C.ar      1 1      0.0000
     2 C4      -4.6954  -0.3989   0.3004   C.ar      1 1      0.0000
     3 C3      -3.5133  -0.0787   0.9469   C.ar      1 1      0.0000
     4 C8      -2.4167   0.3824   0.2349   C.ar      1 1      0.0000
     5 C7      -2.5309   0.5133  -1.1406   C.ar      1 1      0.0000
     6 C6      -3.7125   0.1933  -1.7881   C.ar      1 1      0.0000
     7 H4      -5.5449  -0.7579   0.8720   H         1 1      0.0000
     8 C9      -1.1273   0.7283   0.9396   C.3       1 1      0.0000
     9 H7      -1.6840   0.8709  -1.7169   H         1 1      0.0000
    10 H6      -3.7861   0.3018  -2.8651   H         1 1      0.0000
    11 C10     -0.1993  -0.4720   1.1164   C.3       1 1      0.0000
    12 H9A     -0.6041   1.5024   0.3649   H         1 1      0.0000
    13 C11      1.1155  -0.1799   1.8212   C.3       1 1      0.0000
    14 C12      1.9792   0.7974   1.0314   C.3       1 1      0.0000
    15 H12A     2.8055   1.1398   1.6666   H         1 1      0.0000
    16 C13      2.5424   0.1967  -0.2206   C.2       1 1      0.0000
    17 C14      3.3699   1.0835  -1.1019   C.3       1 1      0.0000
    18 H14B     2.9260   2.0867  -1.1082   H         1 1      0.0000
    19 H14A     3.3390   0.7014  -2.1296   H         1 1      0.0000
    20 N        2.3273  -1.0694  -0.5175   N.pl3     1 1      0.0000
    21 HN       1.8321  -1.6222   0.1820   H         1 1      0.0000
    22 C        2.8391  -1.7907  -1.6737   C.3       1 1      0.0000
    23 H1A      3.0569  -2.8254  -1.4173   H         1 1      0.0000
    24 H1C      2.1114  -1.7882  -2.4825   H         1 1      0.0000
    25 H1B      3.7549  -1.3326  -2.0410   H         1 1      0.0000
    26 H10A    -0.7342  -1.2406   1.6879   H         1 1      0.0000
    27 H10B     0.0240  -0.8858   0.1253   H         1 1      0.0000
    28 H9B     -1.3619   1.1464   1.9263   H         1 1      0.0000
    29 H5      -5.7212  -0.5133  -1.5743   H         1 1      0.0000
    30 H3      -3.4446  -0.1899   2.0240   H         1 1      0.0000
    31 H12B     1.3762   1.6747   0.7667   H         1 1      0.0000
    32 C15      4.8173   1.1930  -0.6596   C.3       1 1      0.0000
    33 H15A     5.3862   1.7390  -1.4223   H         1 1      0.0000
    34 H15C     5.2462   0.1865  -0.5793   H         1 1      0.0000
    35 OH       0.8393   0.3751   3.1102   O.3       1 1      0.0000
    36 OH1      0.2991  -0.2646   3.6365   H         1 1      0.0000
    37 H22      1.6697  -1.1227   1.9483   H         1 1      0.0000
    38 C16      4.9618   1.9010   0.6676   C.3       1 1      0.0000
    39 H16C     4.8169   1.2069   1.4928   H         1 1      0.0000
    40 H16A     5.9523   2.3407   0.7644   H         1 1      0.0000
    41 H16B     4.2267   2.6976   0.7618   H         1 1      0.0000
@<TRIPOS>BOND
     1     1     2   ar
     2     1     6   ar
     3     1    29    1
     4     2     3   ar
     5     2     7    1
     6     3     4   ar
     7     3    30    1
     8     4     5   ar
     9     4     8    1
    10     5     6   ar
    11     5     9    1
    12     6    10    1
    13     8    11    1
    14     8    12    1
    15     8    28    1
    16    11    13    1
    17    11    26    1
    18    11    27    1
    19    13    14    1
    20    14    15    1
    21    14    16    1
    22    14    31    1
    23    16    17    1
    24    16    20    2
    25    17    18    1
    26    17    19    1
    27    17    32    1
    28    20    21    1
    29    20    22    1
    30    22    23    1
    31    22    24    1
    32    22    25    1
    33    32    33    1
    34    32    34    1
    35    13    35    1
    36    35    36    1
    37    13    37    1
    38    32    38    1
    39    38    39    1
    40    38    40    1
    41    38    41    1
@<TRIPOS>SUBSTRUCTURE
     1 1           1 GROUP             0 ****  ****    0  
@<TRIPOS>MOLECULE
Molecule Name_00001_00214
    41    41     1     0     0
SMALL
NO_CHARGES
****
Generated from the CSD

@<TRIPOS>ATOM
     1 C5      -4.7716  -0.5573  -1.0718   C.ar      1 1      0.0000
     2 C4      -4.7166  -0.4686   0.3024   C.ar      1 1      0.0000
     3 C3      -3.5742   0.0079   0.9235   C.ar      1 1      0.0000
     4 C8      -2.4731   0.4025   0.1791   C.ar      1 1      0.0000
     5 C7      -2.5421   0.3068  -1.2022   C.ar      1 1      0.0000
     6 C6      -3.6840  -0.1697  -1.8243   C.ar      1 1      0.0000
     7 H4      -5.5702  -0.7729   0.8991   H         1 1      0.0000
     8 C9      -1.2269   0.9189   0.8567   C.3       1 1      0.0000
     9 H7      -1.6909   0.6089  -1.8034   H         1 1      0.0000
    10 H6      -3.7225  -0.2380  -2.9065   H         1 1      0.0000
    11 C10     -0.2547  -0.1911   1.2515   C.3       1 1      0.0000
    12 H9A     -0.7169   1.6161   0.1805   H         1 1      0.0000
    13 C11      1.0193   0.2735   1.9386   C.3       1 1      0.0000
    14 C12      1.8692   1.1516   1.0268   C.3       1 1      0.0000
    15 H12A     2.6511   1.6371   1.6238   H         1 1      0.0000
    16 C13      2.5122   0.3836  -0.0877   C.2       1 1      0.0000
    17 C14      3.3468   1.1533  -1.0668   C.3       1 1      0.0000
    18 H14B     2.8505   2.1085  -1.2781   H         1 1      0.0000
    19 H14A     3.4050   0.5950  -2.0091   H         1 1      0.0000
    20 N        2.3580  -0.9219  -0.1843   N.pl3     1 1      0.0000
    21 HN       1.8513  -1.3768   0.5749   H         1 1      0.0000
    22 C        2.9496  -1.7958  -1.1869   C.3       1 1      0.0000
    23 H1A      3.2144  -2.7575  -0.7523   H         1 1      0.0000
    24 H1C      2.2523  -1.9734  -2.0029   H         1 1      0.0000
    25 H1B      3.8515  -1.3520  -1.6030   H         1 1      0.0000
    26 H10A    -0.7764  -0.8839   1.9233   H         1 1      0.0000
    27 H10B     0.0227  -0.7462   0.3470   H         1 1      0.0000
    28 H9B     -1.5157   1.4770   1.7558   H         1 1      0.0000
    29 H5      -5.6666  -0.9303  -1.5588   H         1 1      0.0000
    30 H3      -3.5405   0.0733   2.0060   H         1 1      0.0000
    31 H12B     1.2377   1.9402   0.5993   H         1 1      0.0000
    32 C15      4.7537   1.4334  -0.5717   C.3       1 1      0.0000
    33 H15A     4.6988   1.9624   0.3877   H         1 1      0.0000
    34 H15C     5.2628   2.0906  -1.2874   H         1 1      0.0000
    35 OH       0.6718   1.0144   3.1117   O.3       1 1      0.0000
    36 OH1      0.1402   0.4423   3.7184   H         1 1      0.0000
    37 H22      1.6081  -0.6089   2.2333   H         1 1      0.0000
    38 C16      5.5640   0.1701  -0.3952   C.3       1 1      0.0000
    39 H16C     5.6537  -0.3655  -1.3380   H         1 1      0.0000
    40 H16A     6.5661   0.4011  -0.0400   H         1 1      0.0000
    41 H16B     5.0926  -0.4927   0.3275   H         1 1      0.0000
@<TRIPOS>BOND
     1     1     2   ar
     2     1     6   ar
     3     1    29    1
     4     2     3   ar
     5     2     7    1
     6     3     4   ar
     7     3    30    1
     8     4     5   ar
     9     4     8    1
    10     5     6   ar
    11     5     9    1
    12     6    10    1
    13     8    11    1
    14     8    12    1
    15     8    28    1
    16    11    13    1
    17    11    26    1
    18    11    27    1
    19    13    14    1
    20    14    15    1
    21    14    16    1
    22    14    31    1
    23    16    17    1
    24    16    20    2
    25    17    18    1
    26    17    19    1
    27    17    32    1
    28    20    21    1
    29    20    22    1
    30    22    23    1
    31    22    24    1
    32    22    25    1
    33    32    33    1
    34    32    34    1
    35    13    35    1
    36    35    36    1
    37    13    37    1
    38    32    38    1
    39    38    39    1
    40    38    40    1
    41    38    41    1
@<TRIPOS>SUBSTRUCTURE
     1 1           1 GROUP             0 ****  ****    0  
@<TRIPOS>MOLECULE
Molecule Name_00001_00215
    41    41     1     0     0
SMALL
NO_CHARGES
****
Generated from the CSD

@<TRIPOS>ATOM
     1 C5      -4.4002   0.4213  -1.1740   C.ar      1 1      0.0000
     2 C4      -4.4272  -0.2120   0.0498   C.ar      1 1      0.0000
     3 C3      -3.2947  -0.2342   0.8465   C.ar      1 1      0.0000
     4 C8      -2.1216   0.3767   0.4307   C.ar      1 1      0.0000
     5 C7      -2.1086   1.0089  -0.8031   C.ar      1 1      0.0000
     6 C6      -3.2406   1.0318  -1.6006   C.ar      1 1      0.0000
     7 H4      -5.3377  -0.6942   0.3897   H         1 1      0.0000
     8 C9      -0.8864   0.3494   1.2981   C.3       1 1      0.0000
     9 H7      -1.2003   1.4918  -1.1481   H         1 1      0.0000
    10 H6      -3.2144   1.5313  -2.5634   H         1 1      0.0000
    11 C10     -0.0273  -0.8946   1.0800   C.3       1 1      0.0000
    12 H9A     -0.2834   1.2411   1.0869   H         1 1      0.0000
    13 C11      1.2310  -0.9736   1.9293   C.3       1 1      0.0000
    14 C12      2.2011   0.1600   1.6153   C.3       1 1      0.0000
    15 H12A     2.9770   0.1928   2.3900   H         1 1      0.0000
    16 C13      2.8552   0.0127   0.2751   C.2       1 1      0.0000
    17 C14      3.8062   1.0898  -0.1527   C.3       1 1      0.0000
    18 H14B     4.5070   0.6702  -0.8851   H         1 1      0.0000
    19 H14A     4.3916   1.4199   0.7141   H         1 1      0.0000
    20 N        2.6104  -1.0371  -0.4834   N.pl3     1 1      0.0000
    21 HN       2.0233  -1.7649  -0.0762   H         1 1      0.0000
    22 C        3.1982  -1.3272  -1.7832   C.3       1 1      0.0000
    23 H1A      3.0032  -2.3575  -2.0733   H         1 1      0.0000
    24 H1C      2.7821  -0.6752  -2.5484   H         1 1      0.0000
    25 H1B      4.2758  -1.1791  -1.7619   H         1 1      0.0000
    26 H10A    -0.6414  -1.7792   1.2894   H         1 1      0.0000
    27 H10B     0.2655  -0.9322   0.0234   H         1 1      0.0000
    28 H9B     -1.1899   0.3934   2.3513   H         1 1      0.0000
    29 H5      -5.2874   0.4392  -1.7984   H         1 1      0.0000
    30 H3      -3.3258  -0.7359   1.8081   H         1 1      0.0000
    31 H12B     1.6591   1.1133   1.6453   H         1 1      0.0000
    32 C15      3.1176   2.2929  -0.7700   C.3       1 1      0.0000
    33 H15A     3.8612   3.0782  -0.9536   H         1 1      0.0000
    34 H15C     2.3810   2.6893  -0.0602   H         1 1      0.0000
    35 OH       0.8652  -0.9081   3.3105   O.3       1 1      0.0000
    36 OH1      0.2545  -1.6554   3.5263   H         1 1      0.0000
    37 H22      1.7321  -1.9349   1.7364   H         1 1      0.0000
    38 C16      2.4229   1.9551  -2.0688   C.3       1 1      0.0000
    39 H16C     1.6628   1.1924  -1.9127   H         1 1      0.0000
    40 H16A     1.9390   2.8350  -2.4876   H         1 1      0.0000
    41 H16B     3.1349   1.5792  -2.8006   H         1 1      0.0000
@<TRIPOS>BOND
     1     1     2   ar
     2     1     6   ar
     3     1    29    1
     4     2     3   ar
     5     2     7    1
     6     3     4   ar
     7     3    30    1
     8     4     5   ar
     9     4     8    1
    10     5     6   ar
    11     5     9    1
    12     6    10    1
    13     8    11    1
    14     8    12    1
    15     8    28    1
    16    11    13    1
    17    11    26    1
    18    11    27    1
    19    13    14    1
    20    14    15    1
    21    14    16    1
    22    14    31    1
    23    16    17    1
    24    16    20    2
    25    17    18    1
    26    17    19    1
    27    17    32    1
    28    20    21    1
    29    20    22    1
    30    22    23    1
    31    22    24    1
    32    22    25    1
    33    32    33    1
    34    32    34    1
    35    13    35    1
    36    35    36    1
    37    13    37    1
    38    32    38    1
    39    38    39    1
    40    38    40    1
    41    38    41    1
@<TRIPOS>SUBSTRUCTURE
     1 1           1 GROUP             0 ****  ****    0  
@<TRIPOS>MOLECULE
Molecule Name_00001_00216
    41    41     1     0     0
SMALL
NO_CHARGES
****
Generated from the CSD

@<TRIPOS>ATOM
     1 C5      -4.4608   0.4899  -1.0478   C.ar      1 1      0.0000
     2 C4      -4.4356  -0.1611   0.1667   C.ar      1 1      0.0000
     3 C3      -3.2616  -0.2223   0.8988   C.ar      1 1      0.0000
     4 C8      -2.0987   0.3668   0.4268   C.ar      1 1      0.0000
     5 C7      -2.1384   1.0172  -0.7969   C.ar      1 1      0.0000
     6 C6      -3.3119   1.0790  -1.5298   C.ar      1 1      0.0000
     7 H4      -5.3375  -0.6267   0.5501   H         1 1      0.0000
     8 C9      -0.8185   0.2971   1.2237   C.3       1 1      0.0000
     9 H7      -1.2390   1.4836  -1.1852   H         1 1      0.0000
    10 H6      -3.3267   1.5923  -2.4856   H         1 1      0.0000
    11 C10     -0.0035  -0.9634   0.9409   C.3       1 1      0.0000
    12 H9A     -0.2063   1.1774   0.9916   H         1 1      0.0000
    13 C11      1.2976  -1.0852   1.7177   C.3       1 1      0.0000
    14 C12      2.2769   0.0289   1.3648   C.3       1 1      0.0000
    15 H12A     3.0921   0.0354   2.0987   H         1 1      0.0000
    16 C13      2.8576  -0.1194  -0.0087   C.2       1 1      0.0000
    17 C14      3.8195   0.9338  -0.4705   C.3       1 1      0.0000
    18 H14B     4.4902   0.4942  -1.2191   H         1 1      0.0000
    19 H14A     4.4360   1.2565   0.3773   H         1 1      0.0000
    20 N        2.5417  -1.1500  -0.7672   N.pl3     1 1      0.0000
    21 HN       1.9531  -1.8650  -0.3399   H         1 1      0.0000
    22 C        3.0538  -1.4394  -2.0987   C.3       1 1      0.0000
    23 H1A      2.9246  -2.4922  -2.3412   H         1 1      0.0000
    24 H1C      2.5292  -0.8521  -2.8494   H         1 1      0.0000
    25 H1B      4.1139  -1.2040  -2.1650   H         1 1      0.0000
    26 H10A    -0.6266  -1.8363   1.1720   H         1 1      0.0000
    27 H10B     0.2294  -0.9920  -0.1307   H         1 1      0.0000
    28 H9B     -1.0621   0.3324   2.2927   H         1 1      0.0000
    29 H5      -5.3804   0.5382  -1.6216   H         1 1      0.0000
    30 H3      -3.2518  -0.7377   1.8535   H         1 1      0.0000
    31 H12B     1.7600   0.9942   1.4317   H         1 1      0.0000
    32 C15      3.1402   2.1478  -1.0768   C.3       1 1      0.0000
    33 H15A     2.4792   1.8219  -1.8893   H         1 1      0.0000
    34 H15C     3.9020   2.8077  -1.5098   H         1 1      0.0000
    35 OH       1.0105  -1.0305   3.1178   O.3       1 1      0.0000
    36 OH1      0.3941  -1.7657   3.3577   H         1 1      0.0000
    37 H22      1.7629  -2.0555   1.4849   H         1 1      0.0000
    38 C16      2.3323   2.9224  -0.0614   C.3       1 1      0.0000
    39 H16C     2.8086   2.8900   0.9163   H         1 1      0.0000
    40 H16A     2.2377   3.9649  -0.3579   H         1 1      0.0000
    41 H16B     1.3320   2.5054   0.0349   H         1 1      0.0000
@<TRIPOS>BOND
     1     1     2   ar
     2     1     6   ar
     3     1    29    1
     4     2     3   ar
     5     2     7    1
     6     3     4   ar
     7     3    30    1
     8     4     5   ar
     9     4     8    1
    10     5     6   ar
    11     5     9    1
    12     6    10    1
    13     8    11    1
    14     8    12    1
    15     8    28    1
    16    11    13    1
    17    11    26    1
    18    11    27    1
    19    13    14    1
    20    14    15    1
    21    14    16    1
    22    14    31    1
    23    16    17    1
    24    16    20    2
    25    17    18    1
    26    17    19    1
    27    17    32    1
    28    20    21    1
    29    20    22    1
    30    22    23    1
    31    22    24    1
    32    22    25    1
    33    32    33    1
    34    32    34    1
    35    13    35    1
    36    35    36    1
    37    13    37    1
    38    32    38    1
    39    38    39    1
    40    38    40    1
    41    38    41    1
@<TRIPOS>SUBSTRUCTURE
     1 1           1 GROUP             0 ****  ****    0  
@<TRIPOS>MOLECULE
Molecule Name_00001_00217
    41    41     1     0     0
SMALL
NO_CHARGES
****
Generated from the CSD

@<TRIPOS>ATOM
     1 C5      -5.5747   0.4670  -0.0960   C.ar      1 1      0.0000
     2 C4      -5.1167  -0.4580  -1.0092   C.ar      1 1      0.0000
     3 C3      -3.7715  -0.7843  -1.0537   C.ar      1 1      0.0000
     4 C8      -2.8677  -0.1911  -0.1858   C.ar      1 1      0.0000
     5 C7      -3.3422   0.7385   0.7267   C.ar      1 1      0.0000
     6 C6      -4.6872   1.0656   0.7720   C.ar      1 1      0.0000
     7 H4      -5.8115  -0.9316  -1.6949   H         1 1      0.0000
     8 C9      -1.4010  -0.5447  -0.2369   C.3       1 1      0.0000
     9 H7      -2.6514   1.2157   1.4139   H         1 1      0.0000
    10 H6      -5.0430   1.7946   1.4925   H         1 1      0.0000
    11 C10     -0.5654   0.2103   0.7951   C.3       1 1      0.0000
    12 H9A     -1.2886  -1.6227  -0.0675   H         1 1      0.0000
    13 C11      0.9211  -0.1081   0.7878   C.3       1 1      0.0000
    14 C12      1.6140   0.4407  -0.4546   C.3       1 1      0.0000
    15 H12A     1.5540   1.5360  -0.4442   H         1 1      0.0000
    16 C13      3.0525   0.0314  -0.5481   C.2       1 1      0.0000
    17 C14      4.0892   1.0846  -0.2959   C.3       1 1      0.0000
    18 H14B     3.7531   2.0253  -0.7493   H         1 1      0.0000
    19 H14A     5.0253   0.7953  -0.7891   H         1 1      0.0000
    20 N        3.3830  -1.2142  -0.8246   N.pl3     1 1      0.0000
    21 HN       2.6164  -1.8837  -0.8906   H         1 1      0.0000
    22 C        4.7306  -1.7579  -0.9108   C.3       1 1      0.0000
    23 H1A      4.7562  -2.7841  -0.5503   H         1 1      0.0000
    24 H1C      5.0835  -1.7516  -1.9400   H         1 1      0.0000
    25 H1B      5.4235  -1.1708  -0.3119   H         1 1      0.0000
    26 H10A    -0.6890   1.2860   0.6190   H         1 1      0.0000
    27 H10B    -0.9623  -0.0139   1.7929   H         1 1      0.0000
    28 H9B     -1.0158  -0.3224  -1.2397   H         1 1      0.0000
    29 H5      -6.6286   0.7227  -0.0607   H         1 1      0.0000
    30 H3      -3.4207  -1.5134  -1.7767   H         1 1      0.0000
    31 H12B     1.0830   0.0859  -1.3466   H         1 1      0.0000
    32 C15      4.3614   1.3231   1.1778   C.3       1 1      0.0000
    33 H15A     4.6541   0.3759   1.6475   H         1 1      0.0000
    34 H15C     3.4394   1.6662   1.6632   H         1 1      0.0000
    35 OH       1.5250   0.4629   1.9518   O.3       1 1      0.0000
    36 OH1      1.0958   0.0927   2.7621   H         1 1      0.0000
    37 H22      1.0522  -1.2009   0.8154   H         1 1      0.0000
    38 C16      5.4510   2.3456   1.4039   C.3       1 1      0.0000
    39 H16C     5.1777   3.3036   0.9665   H         1 1      0.0000
    40 H16A     5.6243   2.4958   2.4675   H         1 1      0.0000
    41 H16B     6.3852   2.0204   0.9509   H         1 1      0.0000
@<TRIPOS>BOND
     1     1     2   ar
     2     1     6   ar
     3     1    29    1
     4     2     3   ar
     5     2     7    1
     6     3     4   ar
     7     3    30    1
     8     4     5   ar
     9     4     8    1
    10     5     6   ar
    11     5     9    1
    12     6    10    1
    13     8    11    1
    14     8    12    1
    15     8    28    1
    16    11    13    1
    17    11    26    1
    18    11    27    1
    19    13    14    1
    20    14    15    1
    21    14    16    1
    22    14    31    1
    23    16    17    1
    24    16    20    2
    25    17    18    1
    26    17    19    1
    27    17    32    1
    28    20    21    1
    29    20    22    1
    30    22    23    1
    31    22    24    1
    32    22    25    1
    33    32    33    1
    34    32    34    1
    35    13    35    1
    36    35    36    1
    37    13    37    1
    38    32    38    1
    39    38    39    1
    40    38    40    1
    41    38    41    1
@<TRIPOS>SUBSTRUCTURE
     1 1           1 GROUP             0 ****  ****    0  
@<TRIPOS>MOLECULE
Molecule Name_00001_00218
    41    41     1     0     0
SMALL
NO_CHARGES
****
Generated from the CSD

@<TRIPOS>ATOM
     1 C5      -2.9860  -0.8748   1.7643   C.ar      1 1      0.0000
     2 C4      -2.3579   0.3157   2.0606   C.ar      1 1      0.0000
     3 C3      -1.9365   1.1524   1.0406   C.ar      1 1      0.0000
     4 C8      -2.1381   0.8103  -0.2877   C.ar      1 1      0.0000
     5 C7      -2.7700  -0.3908  -0.5710   C.ar      1 1      0.0000
     6 C6      -3.1919  -1.2282   0.4483   C.ar      1 1      0.0000
     7 H4      -2.1933   0.5980   3.0952   H         1 1      0.0000
     8 C9      -1.6756   1.7211  -1.3992   C.3       1 1      0.0000
     9 H7      -2.9362  -0.6782  -1.6039   H         1 1      0.0000
    10 H6      -3.6855  -2.1645   0.2101   H         1 1      0.0000
    11 C10     -0.6357   1.0740  -2.3118   C.3       1 1      0.0000
    12 H9A     -2.5436   2.0174  -2.0010   H         1 1      0.0000
    13 C11      0.7528   0.9228  -1.7118   C.3       1 1      0.0000
    14 C12      0.8167  -0.2227  -0.7076   C.3       1 1      0.0000
    15 H12A     0.5729  -1.1620  -1.2192   H         1 1      0.0000
    16 C13      2.1611  -0.3547  -0.0590   C.2       1 1      0.0000
    17 C14      2.5343   0.6661   0.9737   C.3       1 1      0.0000
    18 H14B     2.1849   1.6504   0.6382   H         1 1      0.0000
    19 H14A     3.6270   0.7133   1.0564   H         1 1      0.0000
    20 N        2.9702  -1.3449  -0.3787   N.pl3     1 1      0.0000
    21 HN       2.5999  -2.0446  -1.0217   H         1 1      0.0000
    22 C        4.2813  -1.6159   0.1927   C.3       1 1      0.0000
    23 H1A      4.4615  -2.6872   0.2537   H         1 1      0.0000
    24 H1C      5.0664  -1.1747  -0.4178   H         1 1      0.0000
    25 H1B      4.3593  -1.2014   1.1955   H         1 1      0.0000
    26 H10A    -0.9986   0.0789  -2.5974   H         1 1      0.0000
    27 H10B    -0.5542   1.6761  -3.2252   H         1 1      0.0000
    28 H9B     -1.2481   2.6307  -0.9595   H         1 1      0.0000
    29 H5      -3.3165  -1.5304   2.5631   H         1 1      0.0000
    30 H3      -1.4425   2.0872   1.2842   H         1 1      0.0000
    31 H12B     0.0597  -0.0599   0.0696   H         1 1      0.0000
    32 C15      1.9478   0.3811   2.3439   C.3       1 1      0.0000
    33 H15A     2.2918  -0.6032   2.6848   H         1 1      0.0000
    34 H15C     0.8541   0.3447   2.2667   H         1 1      0.0000
    35 OH       1.6901   0.6764  -2.7637   O.3       1 1      0.0000
    36 OH1      1.6707   1.4279  -3.4063   H         1 1      0.0000
    37 H22      1.0251   1.8596  -1.2013   H         1 1      0.0000
    38 C16      2.3385   1.4236   3.3656   C.3       1 1      0.0000
    39 H16C     1.9903   2.4092   3.0636   H         1 1      0.0000
    40 H16A     1.9046   1.1937   4.3365   H         1 1      0.0000
    41 H16B     3.4197   1.4663   3.4791   H         1 1      0.0000
@<TRIPOS>BOND
     1     1     2   ar
     2     1     6   ar
     3     1    29    1
     4     2     3   ar
     5     2     7    1
     6     3     4   ar
     7     3    30    1
     8     4     5   ar
     9     4     8    1
    10     5     6   ar
    11     5     9    1
    12     6    10    1
    13     8    11    1
    14     8    12    1
    15     8    28    1
    16    11    13    1
    17    11    26    1
    18    11    27    1
    19    13    14    1
    20    14    15    1
    21    14    16    1
    22    14    31    1
    23    16    17    1
    24    16    20    2
    25    17    18    1
    26    17    19    1
    27    17    32    1
    28    20    21    1
    29    20    22    1
    30    22    23    1
    31    22    24    1
    32    22    25    1
    33    32    33    1
    34    32    34    1
    35    13    35    1
    36    35    36    1
    37    13    37    1
    38    32    38    1
    39    38    39    1
    40    38    40    1
    41    38    41    1
@<TRIPOS>SUBSTRUCTURE
     1 1           1 GROUP             0 ****  ****    0  
@<TRIPOS>MOLECULE
Molecule Name_00001_00219
    41    41     1     0     0
SMALL
NO_CHARGES
****
Generated from the CSD

@<TRIPOS>ATOM
     1 C5      -3.4084  -1.4932   0.8282   C.ar      1 1      0.0000
     2 C4      -2.7876  -0.6699   1.7425   C.ar      1 1      0.0000
     3 C3      -2.2101   0.5188   1.3285   C.ar      1 1      0.0000
     4 C8      -2.2466   0.8999  -0.0041   C.ar      1 1      0.0000
     5 C7      -2.8734   0.0614  -0.9130   C.ar      1 1      0.0000
     6 C6      -3.4511  -1.1276  -0.4999   C.ar      1 1      0.0000
     7 H4      -2.7511  -0.9537   2.7891   H         1 1      0.0000
     8 C9      -1.6142   2.1941  -0.4555   C.3       1 1      0.0000
     9 H7      -2.9117   0.3401  -1.9609   H         1 1      0.0000
    10 H6      -3.9385  -1.7726  -1.2235   H         1 1      0.0000
    11 C10     -0.4859   1.9907  -1.4648   C.3       1 1      0.0000
    12 H9A     -2.3864   2.8293  -0.9066   H         1 1      0.0000
    13 C11      0.8062   1.4304  -0.8925   C.3       1 1      0.0000
    14 C12      0.6961  -0.0606  -0.5933   C.3       1 1      0.0000
    15 H12A     0.4322  -0.5928  -1.5156   H         1 1      0.0000
    16 C13      1.9634  -0.6391  -0.0413   C.2       1 1      0.0000
    17 C14      2.2974  -0.3354   1.3884   C.3       1 1      0.0000
    18 H14B     2.8723  -1.1735   1.8014   H         1 1      0.0000
    19 H14A     1.3690  -0.2541   1.9667   H         1 1      0.0000
    20 N        2.7391  -1.3998  -0.7877   N.pl3     1 1      0.0000
    21 HN       2.3903  -1.6298  -1.7180   H         1 1      0.0000
    22 C        3.9724  -2.0540  -0.3753   C.3       1 1      0.0000
    23 H1A      4.1987  -2.8958  -1.0264   H         1 1      0.0000
    24 H1C      4.8091  -1.3598  -0.4160   H         1 1      0.0000
    25 H1B      3.8907  -2.4261   0.6437   H         1 1      0.0000
    26 H10A    -0.8414   1.3087  -2.2471   H         1 1      0.0000
    27 H10B    -0.2653   2.9562  -1.9366   H         1 1      0.0000
    28 H9B     -1.2182   2.7216   0.4210   H         1 1      0.0000
    29 H5      -3.8612  -2.4244   1.1522   H         1 1      0.0000
    30 H3      -1.7232   1.1599   2.0559   H         1 1      0.0000
    31 H12B    -0.1141  -0.2218   0.1285   H         1 1      0.0000
    32 C15      3.1006   0.9403   1.5628   C.3       1 1      0.0000
    33 H15A     2.5257   1.7848   1.1632   H         1 1      0.0000
    34 H15C     4.0286   0.8633   0.9829   H         1 1      0.0000
    35 OH       1.8625   1.6427  -1.8333   O.3       1 1      0.0000
    36 OH1      1.9548   2.6107  -2.0135   H         1 1      0.0000
    37 H22      1.0445   1.9643   0.0404   H         1 1      0.0000
    38 C16      3.4409   1.2130   3.0097   C.3       1 1      0.0000
    39 H16C     4.0312   0.3998   3.4269   H         1 1      0.0000
    40 H16A     4.0156   2.1320   3.1041   H         1 1      0.0000
    41 H16B     2.5367   1.3160   3.6058   H         1 1      0.0000
@<TRIPOS>BOND
     1     1     2   ar
     2     1     6   ar
     3     1    29    1
     4     2     3   ar
     5     2     7    1
     6     3     4   ar
     7     3    30    1
     8     4     5   ar
     9     4     8    1
    10     5     6   ar
    11     5     9    1
    12     6    10    1
    13     8    11    1
    14     8    12    1
    15     8    28    1
    16    11    13    1
    17    11    26    1
    18    11    27    1
    19    13    14    1
    20    14    15    1
    21    14    16    1
    22    14    31    1
    23    16    17    1
    24    16    20    2
    25    17    18    1
    26    17    19    1
    27    17    32    1
    28    20    21    1
    29    20    22    1
    30    22    23    1
    31    22    24    1
    32    22    25    1
    33    32    33    1
    34    32    34    1
    35    13    35    1
    36    35    36    1
    37    13    37    1
    38    32    38    1
    39    38    39    1
    40    38    40    1
    41    38    41    1
@<TRIPOS>SUBSTRUCTURE
     1 1           1 GROUP             0 ****  ****    0  
@<TRIPOS>MOLECULE
Molecule Name_00001_00220
    41    41     1     0     0
SMALL
NO_CHARGES
****
Generated from the CSD

@<TRIPOS>ATOM
     1 C5      -3.2572   1.1118  -1.6225   C.ar      1 1      0.0000
     2 C4      -2.8077  -0.1730  -1.8384   C.ar      1 1      0.0000
     3 C3      -2.3694  -0.9444  -0.7750   C.ar      1 1      0.0000
     4 C8      -2.3755  -0.4418   0.5171   C.ar      1 1      0.0000
     5 C7      -2.8292   0.8526   0.7193   C.ar      1 1      0.0000
     6 C6      -3.2677   1.6248  -0.3434   C.ar      1 1      0.0000
     7 H4      -2.7972  -0.5810  -2.8437   H         1 1      0.0000
     8 C9      -1.8946  -1.2819   1.6755   C.3       1 1      0.0000
     9 H7      -2.8407   1.2656   1.7225   H         1 1      0.0000
    10 H6      -3.6204   2.6359  -0.1685   H         1 1      0.0000
    11 C10     -0.6870  -0.6808   2.3920   C.3       1 1      0.0000
    12 H9A     -2.7145  -1.3991   2.3948   H         1 1      0.0000
    13 C11      0.6301  -0.7746   1.6386   C.3       1 1      0.0000
    14 C12      0.7126   0.2458   0.5087   C.3       1 1      0.0000
    15 H12A     0.6988   1.2560   0.9362   H         1 1      0.0000
    16 C13      1.9441   0.0876  -0.3304   C.2       1 1      0.0000
    17 C14      3.2343   0.6068   0.2296   C.3       1 1      0.0000
    18 H14B     4.0650   0.0664  -0.2407   H         1 1      0.0000
    19 H14A     3.2707   0.3982   1.3058   H         1 1      0.0000
    20 N        1.8873  -0.5033  -1.5072   N.pl3     1 1      0.0000
    21 HN       0.9886  -0.9077  -1.7696   H         1 1      0.0000
    22 C        3.0025  -0.7568  -2.4080   C.3       1 1      0.0000
    23 H1A      2.7532  -1.5418  -3.1189   H         1 1      0.0000
    24 H1C      3.2561   0.1402  -2.9690   H         1 1      0.0000
    25 H1B      3.8844  -1.0695  -1.8530   H         1 1      0.0000
    26 H10A    -0.8958   0.3774   2.5920   H         1 1      0.0000
    27 H10B    -0.5699  -1.1878   3.3578   H         1 1      0.0000
    28 H9B     -1.6297  -2.2801   1.3056   H         1 1      0.0000
    29 H5      -3.6010   1.7164  -2.4553   H         1 1      0.0000
    30 H3      -2.0168  -1.9545  -0.9554   H         1 1      0.0000
    31 H12B    -0.1718   0.1426  -0.1321   H         1 1      0.0000
    32 C15      3.4328   2.0950   0.0086   C.3       1 1      0.0000
    33 H15A     2.6039   2.6416   0.4750   H         1 1      0.0000
    34 H15C     3.4084   2.3053  -1.0678   H         1 1      0.0000
    35 OH       1.7065  -0.5491   2.5531   O.3       1 1      0.0000
    36 OH1      1.6725  -1.2231   3.2760   H         1 1      0.0000
    37 H22      0.7269  -1.7855   1.2134   H         1 1      0.0000
    38 C16      4.7394   2.5929   0.5818   C.3       1 1      0.0000
    39 H16C     5.5823   2.0823   0.1207   H         1 1      0.0000
    40 H16A     4.8543   3.6609   0.4090   H         1 1      0.0000
    41 H16B     4.7820   2.4166   1.6546   H         1 1      0.0000
@<TRIPOS>BOND
     1     1     2   ar
     2     1     6   ar
     3     1    29    1
     4     2     3   ar
     5     2     7    1
     6     3     4   ar
     7     3    30    1
     8     4     5   ar
     9     4     8    1
    10     5     6   ar
    11     5     9    1
    12     6    10    1
    13     8    11    1
    14     8    12    1
    15     8    28    1
    16    11    13    1
    17    11    26    1
    18    11    27    1
    19    13    14    1
    20    14    15    1
    21    14    16    1
    22    14    31    1
    23    16    17    1
    24    16    20    2
    25    17    18    1
    26    17    19    1
    27    17    32    1
    28    20    21    1
    29    20    22    1
    30    22    23    1
    31    22    24    1
    32    22    25    1
    33    32    33    1
    34    32    34    1
    35    13    35    1
    36    35    36    1
    37    13    37    1
    38    32    38    1
    39    38    39    1
    40    38    40    1
    41    38    41    1
@<TRIPOS>SUBSTRUCTURE
     1 1           1 GROUP             0 ****  ****    0  
@<TRIPOS>MOLECULE
Molecule Name_00001_00221
    41    41     1     0     0
SMALL
NO_CHARGES
****
Generated from the CSD

@<TRIPOS>ATOM
     1 C5      -5.6390   0.6907  -0.3466   C.ar      1 1      0.0000
     2 C4      -4.8728   0.1922  -1.3780   C.ar      1 1      0.0000
     3 C3      -3.6014  -0.2962  -1.1268   C.ar      1 1      0.0000
     4 C8      -3.0804  -0.2933   0.1580   C.ar      1 1      0.0000
     5 C7      -3.8619   0.2123   1.1855   C.ar      1 1      0.0000
     6 C6      -5.1334   0.7009   0.9354   C.ar      1 1      0.0000
     7 H4      -5.2664   0.1824  -2.3890   H         1 1      0.0000
     8 C9      -1.6933  -0.8227   0.4308   C.3       1 1      0.0000
     9 H7      -3.4725   0.2253   2.1982   H         1 1      0.0000
    10 H6      -5.7327   1.0927   1.7506   H         1 1      0.0000
    11 C10     -0.6024   0.2308   0.2495   C.3       1 1      0.0000
    12 H9A     -1.6537  -1.2043   1.4586   H         1 1      0.0000
    13 C11      0.8160  -0.2491   0.5119   C.3       1 1      0.0000
    14 C12      1.8352   0.4935  -0.3451   C.3       1 1      0.0000
    15 H12A     1.8256   1.5563  -0.0734   H         1 1      0.0000
    16 C13      3.2273  -0.0382  -0.1868   C.2       1 1      0.0000
    17 C14      4.1720   0.7423   0.6770   C.3       1 1      0.0000
    18 H14B     4.9492   0.0644   1.0508   H         1 1      0.0000
    19 H14A     3.6280   1.1331   1.5455   H         1 1      0.0000
    20 N        3.5919  -1.1603  -0.7745   N.pl3     1 1      0.0000
    21 HN       2.8610  -1.6733  -1.2672   H         1 1      0.0000
    22 C        4.8914  -1.8093  -0.6799   C.3       1 1      0.0000
    23 H1A      4.8299  -2.8451  -1.0071   H         1 1      0.0000
    24 H1C      5.6229  -1.2999  -1.3037   H         1 1      0.0000
    25 H1B      5.2552  -1.7988   0.3453   H         1 1      0.0000
    26 H10A    -0.6545   0.6081  -0.7793   H         1 1      0.0000
    27 H10B    -0.8146   1.0687   0.9250   H         1 1      0.0000
    28 H9B     -1.4937  -1.6633  -0.2452   H         1 1      0.0000
    29 H5      -6.6352   1.0732  -0.5430   H         1 1      0.0000
    30 H3      -3.0058  -0.6860  -1.9456   H         1 1      0.0000
    31 H12B     1.5410   0.4158  -1.3990   H         1 1      0.0000
    32 C15      4.8388   1.8968  -0.0478   C.3       1 1      0.0000
    33 H15A     4.0667   2.5781  -0.4261   H         1 1      0.0000
    34 H15C     5.3934   1.5078  -0.9106   H         1 1      0.0000
    35 OH       1.1281  -0.0457   1.8929   O.3       1 1      0.0000
    36 OH1      0.4845  -0.5446   2.4540   H         1 1      0.0000
    37 H22      0.8765  -1.3249   0.2854   H         1 1      0.0000
    38 C16      5.7851   2.6668   0.8440   C.3       1 1      0.0000
    39 H16C     6.5759   2.0195   1.2172   H         1 1      0.0000
    40 H16A     6.2475   3.4869   0.2987   H         1 1      0.0000
    41 H16B     5.2565   3.0835   1.6987   H         1 1      0.0000
@<TRIPOS>BOND
     1     1     2   ar
     2     1     6   ar
     3     1    29    1
     4     2     3   ar
     5     2     7    1
     6     3     4   ar
     7     3    30    1
     8     4     5   ar
     9     4     8    1
    10     5     6   ar
    11     5     9    1
    12     6    10    1
    13     8    11    1
    14     8    12    1
    15     8    28    1
    16    11    13    1
    17    11    26    1
    18    11    27    1
    19    13    14    1
    20    14    15    1
    21    14    16    1
    22    14    31    1
    23    16    17    1
    24    16    20    2
    25    17    18    1
    26    17    19    1
    27    17    32    1
    28    20    21    1
    29    20    22    1
    30    22    23    1
    31    22    24    1
    32    22    25    1
    33    32    33    1
    34    32    34    1
    35    13    35    1
    36    35    36    1
    37    13    37    1
    38    32    38    1
    39    38    39    1
    40    38    40    1
    41    38    41    1
@<TRIPOS>SUBSTRUCTURE
     1 1           1 GROUP             0 ****  ****    0  
@<TRIPOS>MOLECULE
Molecule Name_00001_00222
    41    41     1     0     0
SMALL
NO_CHARGES
****
Generated from the CSD

@<TRIPOS>ATOM
     1 C5      -4.8419  -1.3531  -0.3254   C.ar      1 1      0.0000
     2 C4      -4.3666  -1.3061   0.9674   C.ar      1 1      0.0000
     3 C3      -3.3206  -0.4591   1.2936   C.ar      1 1      0.0000
     4 C8      -2.7373   0.3520   0.3323   C.ar      1 1      0.0000
     5 C7      -3.2247   0.2935  -0.9642   C.ar      1 1      0.0000
     6 C6      -4.2707  -0.5532  -1.2914   C.ar      1 1      0.0000
     7 H4      -4.8129  -1.9342   1.7313   H         1 1      0.0000
     8 C9      -1.5951   1.2728   0.6876   C.3       1 1      0.0000
     9 H7      -2.7813   0.9189  -1.7320   H         1 1      0.0000
    10 H6      -4.6412  -0.5869  -2.3107   H         1 1      0.0000
    11 C10     -0.2994   0.9326  -0.0463   C.3       1 1      0.0000
    12 H9A     -1.8812   2.3042   0.4473   H         1 1      0.0000
    13 C11      0.8852   1.8296   0.2746   C.3       1 1      0.0000
    14 C12      2.1346   1.4194  -0.4972   C.3       1 1      0.0000
    15 H12A     2.8996   2.1969  -0.3801   H         1 1      0.0000
    16 C13      2.6973   0.1079  -0.0401   C.2       1 1      0.0000
    17 C14      3.8832   0.1457   0.8764   C.3       1 1      0.0000
    18 H14B     3.9107  -0.7858   1.4552   H         1 1      0.0000
    19 H14A     3.7646   0.9732   1.5864   H         1 1      0.0000
    20 N        2.1517  -1.0299  -0.4209   N.pl3     1 1      0.0000
    21 HN       1.2942  -0.9615  -0.9689   H         1 1      0.0000
    22 C        2.5678  -2.3685  -0.0284   C.3       1 1      0.0000
    23 H1A      1.7998  -3.0988  -0.2747   H         1 1      0.0000
    24 H1C      3.4835  -2.6535  -0.5422   H         1 1      0.0000
    25 H1B      2.7514  -2.4178   1.0428   H         1 1      0.0000
    26 H10A    -0.0258  -0.1013   0.1977   H         1 1      0.0000
    27 H10B    -0.4894   0.9834  -1.1256   H         1 1      0.0000
    28 H9B     -1.4175   1.2190   1.7688   H         1 1      0.0000
    29 H5      -5.6615  -2.0163  -0.5813   H         1 1      0.0000
    30 H3      -2.9532  -0.4298   2.3141   H         1 1      0.0000
    31 H12B     1.8895   1.3504  -1.5642   H         1 1      0.0000
    32 C15      5.2045   0.3065   0.1475   C.3       1 1      0.0000
    33 H15A     5.1831   1.2356  -0.4352   H         1 1      0.0000
    34 H15C     5.3314  -0.5262  -0.5553   H         1 1      0.0000
    35 OH       0.5506   3.1796  -0.0591   O.3       1 1      0.0000
    36 OH1     -0.2350   3.4656   0.4692   H         1 1      0.0000
    37 H22      1.0970   1.7691   1.3533   H         1 1      0.0000
    38 C16      6.3829   0.3416   1.0929   C.3       1 1      0.0000
    39 H16C     6.4420  -0.5789   1.6700   H         1 1      0.0000
    40 H16A     7.3148   0.4575   0.5435   H         1 1      0.0000
    41 H16B     6.2942   1.1730   1.7891   H         1 1      0.0000
@<TRIPOS>BOND
     1     1     2   ar
     2     1     6   ar
     3     1    29    1
     4     2     3   ar
     5     2     7    1
     6     3     4   ar
     7     3    30    1
     8     4     5   ar
     9     4     8    1
    10     5     6   ar
    11     5     9    1
    12     6    10    1
    13     8    11    1
    14     8    12    1
    15     8    28    1
    16    11    13    1
    17    11    26    1
    18    11    27    1
    19    13    14    1
    20    14    15    1
    21    14    16    1
    22    14    31    1
    23    16    17    1
    24    16    20    2
    25    17    18    1
    26    17    19    1
    27    17    32    1
    28    20    21    1
    29    20    22    1
    30    22    23    1
    31    22    24    1
    32    22    25    1
    33    32    33    1
    34    32    34    1
    35    13    35    1
    36    35    36    1
    37    13    37    1
    38    32    38    1
    39    38    39    1
    40    38    40    1
    41    38    41    1
@<TRIPOS>SUBSTRUCTURE
     1 1           1 GROUP             0 ****  ****    0  
@<TRIPOS>MOLECULE
Molecule Name_00001_00223
    41    41     1     0     0
SMALL
NO_CHARGES
****
Generated from the CSD

@<TRIPOS>ATOM
     1 C5      -4.1165  -1.6462   0.2845   C.ar      1 1      0.0000
     2 C4      -2.7497  -1.7472   0.1402   C.ar      1 1      0.0000
     3 C3      -1.9911  -0.6158  -0.1098   C.ar      1 1      0.0000
     4 C8      -2.5889   0.6304  -0.2178   C.ar      1 1      0.0000
     5 C7      -3.9648   0.7170  -0.0717   C.ar      1 1      0.0000
     6 C6      -4.7243  -0.4138   0.1784   C.ar      1 1      0.0000
     7 H4      -2.2668  -2.7153   0.2226   H         1 1      0.0000
     8 C9      -1.7620   1.8630  -0.4936   C.3       1 1      0.0000
     9 H7      -4.4527   1.6826  -0.1541   H         1 1      0.0000
    10 H6      -5.8001  -0.3293   0.2909   H         1 1      0.0000
    11 C10     -0.2613   1.5819  -0.5355   C.3       1 1      0.0000
    12 H9A     -2.0718   2.2917  -1.4547   H         1 1      0.0000
    13 C11      0.3810   1.2742   0.8076   C.3       1 1      0.0000
    14 C12      1.9002   1.3910   0.7515   C.3       1 1      0.0000
    15 H12A     2.2998   1.3635   1.7727   H         1 1      0.0000
    16 C13      2.5391   0.2995  -0.0523   C.2       1 1      0.0000
    17 C14      4.0241   0.3634  -0.2486   C.3       1 1      0.0000
    18 H14B     4.3118   1.4078  -0.4214   H         1 1      0.0000
    19 H14A     4.2946  -0.2072  -1.1454   H         1 1      0.0000
    20 N        1.8162  -0.6847  -0.5485   N.pl3     1 1      0.0000
    21 HN       0.8298  -0.6990  -0.2896   H         1 1      0.0000
    22 C        2.3047  -1.8232  -1.3126   C.3       1 1      0.0000
    23 H1A      1.7240  -2.7157  -1.0888   H         1 1      0.0000
    24 H1C      2.2313  -1.6304  -2.3809   H         1 1      0.0000
    25 H1B      3.3466  -2.0288  -1.0767   H         1 1      0.0000
    26 H10A    -0.0883   0.7297  -1.2042   H         1 1      0.0000
    27 H10B     0.2426   2.4551  -0.9679   H         1 1      0.0000
    28 H9B     -1.9639   2.6087   0.2852   H         1 1      0.0000
    29 H5      -4.7111  -2.5323   0.4807   H         1 1      0.0000
    30 H3      -0.9158  -0.7059  -0.2225   H         1 1      0.0000
    31 H12B     2.1686   2.3605   0.3141   H         1 1      0.0000
    32 C15      4.8126  -0.1710   0.9327   C.3       1 1      0.0000
    33 H15A     4.5282  -1.2151   1.1123   H         1 1      0.0000
    34 H15C     4.5528   0.4053   1.8292   H         1 1      0.0000
    35 OH      -0.1234   2.1886   1.7850   O.3       1 1      0.0000
    36 OH1     -1.0617   1.9602   1.9980   H         1 1      0.0000
    37 H22      0.1133   0.2484   1.1047   H         1 1      0.0000
    38 C16      6.3054  -0.0955   0.7098   C.3       1 1      0.0000
    39 H16C     6.6200   0.9337   0.5502   H         1 1      0.0000
    40 H16A     6.8441  -0.4848   1.5712   H         1 1      0.0000
    41 H16B     6.5951  -0.6776  -0.1625   H         1 1      0.0000
@<TRIPOS>BOND
     1     1     2   ar
     2     1     6   ar
     3     1    29    1
     4     2     3   ar
     5     2     7    1
     6     3     4   ar
     7     3    30    1
     8     4     5   ar
     9     4     8    1
    10     5     6   ar
    11     5     9    1
    12     6    10    1
    13     8    11    1
    14     8    12    1
    15     8    28    1
    16    11    13    1
    17    11    26    1
    18    11    27    1
    19    13    14    1
    20    14    15    1
    21    14    16    1
    22    14    31    1
    23    16    17    1
    24    16    20    2
    25    17    18    1
    26    17    19    1
    27    17    32    1
    28    20    21    1
    29    20    22    1
    30    22    23    1
    31    22    24    1
    32    22    25    1
    33    32    33    1
    34    32    34    1
    35    13    35    1
    36    35    36    1
    37    13    37    1
    38    32    38    1
    39    38    39    1
    40    38    40    1
    41    38    41    1
@<TRIPOS>SUBSTRUCTURE
     1 1           1 GROUP             0 ****  ****    0  
@<TRIPOS>MOLECULE
Molecule Name_00001_00224
    41    41     1     0     0
SMALL
NO_CHARGES
****
Generated from the CSD

@<TRIPOS>ATOM
     1 C5      -4.2507  -0.7823  -1.1996   C.ar      1 1      0.0000
     2 C4      -2.8915  -0.8422  -1.4194   C.ar      1 1      0.0000
     3 C3      -2.0232  -0.1361  -0.6037   C.ar      1 1      0.0000
     4 C8      -2.5022   0.6378   0.4421   C.ar      1 1      0.0000
     5 C7      -3.8718   0.6898   0.6509   C.ar      1 1      0.0000
     6 C6      -4.7410  -0.0159  -0.1643   C.ar      1 1      0.0000
     7 H4      -2.5009  -1.4439  -2.2334   H         1 1      0.0000
     8 C9      -1.5556   1.4099   1.3291   C.3       1 1      0.0000
     9 H7      -4.2676   1.2908   1.4629   H         1 1      0.0000
    10 H6      -5.8103   0.0346   0.0125   H         1 1      0.0000
    11 C10     -0.0853   1.1587   0.9999   C.3       1 1      0.0000
    12 H9A     -1.7661   2.4816   1.2268   H         1 1      0.0000
    13 C11      0.4426  -0.2139   1.3850   C.3       1 1      0.0000
    14 C12      1.9667  -0.2559   1.3908   C.3       1 1      0.0000
    15 H12A     2.2978  -1.1878   1.8654   H         1 1      0.0000
    16 C13      2.5571  -0.1716   0.0161   C.2       1 1      0.0000
    17 C14      4.0513  -0.1160  -0.0930   C.3       1 1      0.0000
    18 H14B     4.3464  -0.4891  -1.0814   H         1 1      0.0000
    19 H14A     4.4932  -0.7823   0.6579   H         1 1      0.0000
    20 N        1.7836  -0.1653  -1.0512   N.pl3     1 1      0.0000
    21 HN       0.7855  -0.2988  -0.8897   H         1 1      0.0000
    22 C        2.2180  -0.1239  -2.4400   C.3       1 1      0.0000
    23 H1A      1.4282  -0.4735  -3.1016   H         1 1      0.0000
    24 H1C      2.4797   0.8910  -2.7318   H         1 1      0.0000
    25 H1B      3.0910  -0.7553  -2.5911   H         1 1      0.0000
    26 H10A     0.0542   1.2918  -0.0800   H         1 1      0.0000
    27 H10B     0.5187   1.9178   1.5121   H         1 1      0.0000
    28 H9B     -1.7400   1.1317   2.3741   H         1 1      0.0000
    29 H5      -4.9313  -1.3355  -1.8383   H         1 1      0.0000
    30 H3      -0.9548  -0.1893  -0.7853   H         1 1      0.0000
    31 H12B     2.3453   0.5786   1.9939   H         1 1      0.0000
    32 C15      4.6185   1.2795   0.0911   C.3       1 1      0.0000
    33 H15A     4.3254   1.6598   1.0774   H         1 1      0.0000
    34 H15C     4.1871   1.9460  -0.6659   H         1 1      0.0000
    35 OH      -0.0403  -0.5493   2.6889   O.3       1 1      0.0000
    36 OH1     -0.9775  -0.8583   2.6248   H         1 1      0.0000
    37 H22      0.0686  -0.9558   0.6625   H         1 1      0.0000
    38 C16      6.1251   1.3083  -0.0233   C.3       1 1      0.0000
    39 H16C     6.4443   0.9561  -1.0020   H         1 1      0.0000
    40 H16A     6.5029   2.3195   0.1128   H         1 1      0.0000
    41 H16B     6.5814   0.6715   0.7316   H         1 1      0.0000
@<TRIPOS>BOND
     1     1     2   ar
     2     1     6   ar
     3     1    29    1
     4     2     3   ar
     5     2     7    1
     6     3     4   ar
     7     3    30    1
     8     4     5   ar
     9     4     8    1
    10     5     6   ar
    11     5     9    1
    12     6    10    1
    13     8    11    1
    14     8    12    1
    15     8    28    1
    16    11    13    1
    17    11    26    1
    18    11    27    1
    19    13    14    1
    20    14    15    1
    21    14    16    1
    22    14    31    1
    23    16    17    1
    24    16    20    2
    25    17    18    1
    26    17    19    1
    27    17    32    1
    28    20    21    1
    29    20    22    1
    30    22    23    1
    31    22    24    1
    32    22    25    1
    33    32    33    1
    34    32    34    1
    35    13    35    1
    36    35    36    1
    37    13    37    1
    38    32    38    1
    39    38    39    1
    40    38    40    1
    41    38    41    1
@<TRIPOS>SUBSTRUCTURE
     1 1           1 GROUP             0 ****  ****    0  
@<TRIPOS>MOLECULE
Molecule Name_00001_00225
    41    41     1     0     0
SMALL
NO_CHARGES
****
Generated from the CSD

@<TRIPOS>ATOM
     1 C5      -2.8562   2.2599  -0.0119   C.ar      1 1      0.0000
     2 C4      -2.9580   1.3968  -1.0815   C.ar      1 1      0.0000
     3 C3      -2.6310   0.0596  -0.9298   C.ar      1 1      0.0000
     4 C8      -2.1991  -0.4317   0.2926   C.ar      1 1      0.0000
     5 C7      -2.1003   0.4481   1.3595   C.ar      1 1      0.0000
     6 C6      -2.4271   1.7855   1.2089   C.ar      1 1      0.0000
     7 H4      -3.2950   1.7657  -2.0445   H         1 1      0.0000
     8 C9      -1.8397  -1.8886   0.4567   C.3       1 1      0.0000
     9 H7      -1.7629   0.0844   2.3244   H         1 1      0.0000
    10 H6      -2.3450   2.4612   2.0538   H         1 1      0.0000
    11 C10     -0.7833  -2.3620  -0.5397   C.3       1 1      0.0000
    12 H9A     -1.4673  -2.0509   1.4757   H         1 1      0.0000
    13 C11      0.6361  -1.8996  -0.2523   C.3       1 1      0.0000
    14 C12      0.7818  -0.3886  -0.3957   C.3       1 1      0.0000
    15 H12A     0.1956   0.1042   0.3897   H         1 1      0.0000
    16 C13      2.2052   0.0708  -0.3036   C.2       1 1      0.0000
    17 C14      2.4660   1.5427  -0.4183   C.3       1 1      0.0000
    18 H14B     1.8080   1.9576  -1.1918   H         1 1      0.0000
    19 H14A     3.5012   1.7017  -0.7441   H         1 1      0.0000
    20 N        3.1819  -0.7932  -0.1109   N.pl3     1 1      0.0000
    21 HN       2.9065  -1.7623   0.0476   H         1 1      0.0000
    22 C        4.5977  -0.4873   0.0337   C.3       1 1      0.0000
    23 H1A      5.0700  -1.1707   0.7363   H         1 1      0.0000
    24 H1C      5.1106  -0.5759  -0.9217   H         1 1      0.0000
    25 H1B      4.7387   0.5271   0.4006   H         1 1      0.0000
    26 H10A    -0.7922  -3.4589  -0.5571   H         1 1      0.0000
    27 H10B    -1.0666  -2.0085  -1.5388   H         1 1      0.0000
    28 H9B     -2.7453  -2.4950   0.3318   H         1 1      0.0000
    29 H5      -3.1125   3.3075  -0.1302   H         1 1      0.0000
    30 H3      -2.7139  -0.6118  -1.7780   H         1 1      0.0000
    31 H12B     0.3688  -0.0796  -1.3639   H         1 1      0.0000
    32 C15      2.2346   2.2995   0.8765   C.3       1 1      0.0000
    33 H15A     2.8885   1.8881   1.6554   H         1 1      0.0000
    34 H15C     1.1966   2.1519   1.1990   H         1 1      0.0000
    35 OH       0.9885  -2.2798   1.0808   O.3       1 1      0.0000
    36 OH1      0.9190  -3.2619   1.1735   H         1 1      0.0000
    37 H22      1.3220  -2.3922  -0.9587   H         1 1      0.0000
    38 C16      2.5041   3.7796   0.7343   C.3       1 1      0.0000
    39 H16C     1.8529   4.2196  -0.0181   H         1 1      0.0000
    40 H16A     2.3305   4.2955   1.6763   H         1 1      0.0000
    41 H16B     3.5352   3.9570   0.4357   H         1 1      0.0000
@<TRIPOS>BOND
     1     1     2   ar
     2     1     6   ar
     3     1    29    1
     4     2     3   ar
     5     2     7    1
     6     3     4   ar
     7     3    30    1
     8     4     5   ar
     9     4     8    1
    10     5     6   ar
    11     5     9    1
    12     6    10    1
    13     8    11    1
    14     8    12    1
    15     8    28    1
    16    11    13    1
    17    11    26    1
    18    11    27    1
    19    13    14    1
    20    14    15    1
    21    14    16    1
    22    14    31    1
    23    16    17    1
    24    16    20    2
    25    17    18    1
    26    17    19    1
    27    17    32    1
    28    20    21    1
    29    20    22    1
    30    22    23    1
    31    22    24    1
    32    22    25    1
    33    32    33    1
    34    32    34    1
    35    13    35    1
    36    35    36    1
    37    13    37    1
    38    32    38    1
    39    38    39    1
    40    38    40    1
    41    38    41    1
@<TRIPOS>SUBSTRUCTURE
     1 1           1 GROUP             0 ****  ****    0  
@<TRIPOS>MOLECULE
Molecule Name_00001_00226
    41    41     1     0     0
SMALL
NO_CHARGES
****
Generated from the CSD

@<TRIPOS>ATOM
     1 C5      -2.9296   2.1700   0.6686   C.ar      1 1      0.0000
     2 C4      -2.8427   1.8070  -0.6581   C.ar      1 1      0.0000
     3 C3      -2.5145   0.5066  -1.0034   C.ar      1 1      0.0000
     4 C8      -2.2699  -0.4472  -0.0274   C.ar      1 1      0.0000
     5 C7      -2.3596  -0.0677   1.3030   C.ar      1 1      0.0000
     6 C6      -2.6878   1.2324   1.6494   C.ar      1 1      0.0000
     7 H4      -3.0319   2.5417  -1.4337   H         1 1      0.0000
     8 C9      -1.9089  -1.8637  -0.4043   C.3       1 1      0.0000
     9 H7      -2.1705  -0.7984   2.0825   H         1 1      0.0000
    10 H6      -2.7546   1.5135   2.6952   H         1 1      0.0000
    11 C10     -0.6986  -1.9480  -1.3322   C.3       1 1      0.0000
    12 H9A     -1.6982  -2.4326   0.5097   H         1 1      0.0000
    13 C11      0.6473  -1.6988  -0.6708   C.3       1 1      0.0000
    14 C12      0.7806  -0.2626  -0.1764   C.3       1 1      0.0000
    15 H12A     0.0674  -0.0970   0.6405   H         1 1      0.0000
    16 C13      2.1613   0.0610   0.3078   C.2       1 1      0.0000
    17 C14      2.4046   1.4451   0.8302   C.3       1 1      0.0000
    18 H14B     3.2569   1.4163   1.5202   H         1 1      0.0000
    19 H14A     1.5278   1.7750   1.4007   H         1 1      0.0000
    20 N        3.1142  -0.8495   0.2876   N.pl3     1 1      0.0000
    21 HN       2.8385  -1.7892   0.0028   H         1 1      0.0000
    22 C        4.4825  -0.6872   0.7569   C.3       1 1      0.0000
    23 H1A      4.9565  -1.6551   0.9058   H         1 1      0.0000
    24 H1C      5.0738  -0.1280   0.0348   H         1 1      0.0000
    25 H1B      4.5058  -0.1494   1.7023   H         1 1      0.0000
    26 H10A    -0.6807  -2.9465  -1.7862   H         1 1      0.0000
    27 H10B    -0.8288  -1.2155  -2.1384   H         1 1      0.0000
    28 H9B     -2.7701  -2.3314  -0.8974   H         1 1      0.0000
    29 H5      -3.1869   3.1886   0.9396   H         1 1      0.0000
    30 H3      -2.4480   0.2309  -2.0507   H         1 1      0.0000
    31 H12B     0.5185   0.4224  -0.9922   H         1 1      0.0000
    32 C15      2.6938   2.4598  -0.2605   C.3       1 1      0.0000
    33 H15A     1.8457   2.4923  -0.9556   H         1 1      0.0000
    34 H15C     3.5773   2.1385  -0.8258   H         1 1      0.0000
    35 OH       0.7936  -2.5912   0.4373   O.3       1 1      0.0000
    36 OH1      0.7319  -3.5256   0.1194   H         1 1      0.0000
    37 H22      1.4465  -1.8999  -1.4009   H         1 1      0.0000
    38 C16      2.9351   3.8456   0.2917   C.3       1 1      0.0000
    39 H16C     3.7864   3.8479   0.9694   H         1 1      0.0000
    40 H16A     3.1393   4.5506  -0.5113   H         1 1      0.0000
    41 H16B     2.0645   4.1993   0.8401   H         1 1      0.0000
@<TRIPOS>BOND
     1     1     2   ar
     2     1     6   ar
     3     1    29    1
     4     2     3   ar
     5     2     7    1
     6     3     4   ar
     7     3    30    1
     8     4     5   ar
     9     4     8    1
    10     5     6   ar
    11     5     9    1
    12     6    10    1
    13     8    11    1
    14     8    12    1
    15     8    28    1
    16    11    13    1
    17    11    26    1
    18    11    27    1
    19    13    14    1
    20    14    15    1
    21    14    16    1
    22    14    31    1
    23    16    17    1
    24    16    20    2
    25    17    18    1
    26    17    19    1
    27    17    32    1
    28    20    21    1
    29    20    22    1
    30    22    23    1
    31    22    24    1
    32    22    25    1
    33    32    33    1
    34    32    34    1
    35    13    35    1
    36    35    36    1
    37    13    37    1
    38    32    38    1
    39    38    39    1
    40    38    40    1
    41    38    41    1
@<TRIPOS>SUBSTRUCTURE
     1 1           1 GROUP             0 ****  ****    0  
@<TRIPOS>MOLECULE
Molecule Name_00001_00227
    41    41     1     0     0
SMALL
NO_CHARGES
****
Generated from the CSD

@<TRIPOS>ATOM
     1 C5      -5.4324  -0.0061   0.6820   C.ar      1 1      0.0000
     2 C4      -4.6430   0.8439   1.4261   C.ar      1 1      0.0000
     3 C3      -3.3416   1.1075   1.0327   C.ar      1 1      0.0000
     4 C8      -2.8132   0.5256  -0.1094   C.ar      1 1      0.0000
     5 C7      -3.6183  -0.3284  -0.8475   C.ar      1 1      0.0000
     6 C6      -4.9198  -0.5925  -0.4549   C.ar      1 1      0.0000
     7 H4      -5.0420   1.3077   2.3222   H         1 1      0.0000
     8 C9      -1.3935   0.8105  -0.5361   C.3       1 1      0.0000
     9 H7      -3.2237  -0.7954  -1.7438   H         1 1      0.0000
    10 H6      -5.5374  -1.2627  -1.0438   H         1 1      0.0000
    11 C10     -0.3729  -0.1212   0.1144   C.3       1 1      0.0000
    12 H9A     -1.3229   0.7118  -1.6264   H         1 1      0.0000
    13 C11      1.0749   0.1218  -0.2806   C.3       1 1      0.0000
    14 C12      2.0260  -0.8370   0.4269   C.3       1 1      0.0000
    15 H12A     1.8066  -1.8624   0.1046   H         1 1      0.0000
    16 C13      3.4680  -0.5365   0.1512   C.2       1 1      0.0000
    17 C14      4.2801   0.0432   1.2702   C.3       1 1      0.0000
    18 H14B     5.3366  -0.1986   1.1005   H         1 1      0.0000
    19 H14A     3.9805  -0.4267   2.2149   H         1 1      0.0000
    20 N        3.9970  -0.7927  -1.0286   N.pl3     1 1      0.0000
    21 HN       3.3976  -1.2710  -1.7010   H         1 1      0.0000
    22 C        5.3829  -0.5872  -1.4235   C.3       1 1      0.0000
    23 H1A      5.4429  -0.2353  -2.4513   H         1 1      0.0000
    24 H1C      5.8603   0.1522  -0.7839   H         1 1      0.0000
    25 H1B      5.9477  -1.5141  -1.3491   H         1 1      0.0000
    26 H10A    -0.4557  -0.0174   1.2034   H         1 1      0.0000
    27 H10B    -0.6333  -1.1549  -0.1447   H         1 1      0.0000
    28 H9B     -1.1455   1.8475  -0.2781   H         1 1      0.0000
    29 H5      -6.4521  -0.2126   0.9898   H         1 1      0.0000
    30 H3      -2.7279   1.7776   1.6256   H         1 1      0.0000
    31 H12B     1.8503  -0.7823   1.5084   H         1 1      0.0000
    32 C15      4.1390   1.5485   1.4015   C.3       1 1      0.0000
    33 H15A     4.3422   2.0150   0.4297   H         1 1      0.0000
    34 H15C     4.8869   1.9192   2.1132   H         1 1      0.0000
    35 OH       1.2059  -0.0468  -1.6949   O.3       1 1      0.0000
    36 OH1      0.6220   0.6015  -2.1605   H         1 1      0.0000
    37 H22      1.3485   1.1550  -0.0160   H         1 1      0.0000
    38 C16      2.7622   1.9590   1.8699   C.3       1 1      0.0000
    39 H16C     2.8277   2.5896   2.7541   H         1 1      0.0000
    40 H16A     2.2410   2.5160   1.0942   H         1 1      0.0000
    41 H16B     2.1636   1.0856   2.1202   H         1 1      0.0000
@<TRIPOS>BOND
     1     1     2   ar
     2     1     6   ar
     3     1    29    1
     4     2     3   ar
     5     2     7    1
     6     3     4   ar
     7     3    30    1
     8     4     5   ar
     9     4     8    1
    10     5     6   ar
    11     5     9    1
    12     6    10    1
    13     8    11    1
    14     8    12    1
    15     8    28    1
    16    11    13    1
    17    11    26    1
    18    11    27    1
    19    13    14    1
    20    14    15    1
    21    14    16    1
    22    14    31    1
    23    16    17    1
    24    16    20    2
    25    17    18    1
    26    17    19    1
    27    17    32    1
    28    20    21    1
    29    20    22    1
    30    22    23    1
    31    22    24    1
    32    22    25    1
    33    32    33    1
    34    32    34    1
    35    13    35    1
    36    35    36    1
    37    13    37    1
    38    32    38    1
    39    38    39    1
    40    38    40    1
    41    38    41    1
@<TRIPOS>SUBSTRUCTURE
     1 1           1 GROUP             0 ****  ****    0  
@<TRIPOS>MOLECULE
Molecule Name_00001_00228
    41    41     1     0     0
SMALL
NO_CHARGES
****
Generated from the CSD

@<TRIPOS>ATOM
     1 C5      -5.5888   0.3482  -0.2931   C.ar      1 1      0.0000
     2 C4      -4.9369  -0.7995  -0.6896   C.ar      1 1      0.0000
     3 C3      -3.6163  -1.0092  -0.3292   C.ar      1 1      0.0000
     4 C8      -2.9310  -0.0750   0.4323   C.ar      1 1      0.0000
     5 C7      -3.5988   1.0754   0.8230   C.ar      1 1      0.0000
     6 C6      -4.9194   1.2860   0.4632   C.ar      1 1      0.0000
     7 H4      -5.4596  -1.5405  -1.2853   H         1 1      0.0000
     8 C9      -1.4904  -0.3025   0.8220   C.3       1 1      0.0000
     9 H7      -3.0803   1.8199   1.4181   H         1 1      0.0000
    10 H6      -5.4283   2.1913   0.7775   H         1 1      0.0000
    11 C10     -0.4990   0.1904  -0.2302   C.3       1 1      0.0000
    12 H9A     -1.2920   0.2144   1.7691   H         1 1      0.0000
    13 C11      0.9681  -0.0140   0.1115   C.3       1 1      0.0000
    14 C12      1.8856   0.4876  -0.9981   C.3       1 1      0.0000
    15 H12A     1.7641   1.5730  -1.1004   H         1 1      0.0000
    16 C13      3.3300   0.1799  -0.7434   C.2       1 1      0.0000
    17 C14      4.2282   1.3250  -0.3833   C.3       1 1      0.0000
    18 H14B     3.9464   2.1968  -0.9866   H         1 1      0.0000
    19 H14A     5.2631   1.0662  -0.6386   H         1 1      0.0000
    20 N        3.7798  -1.0568  -0.8183   N.pl3     1 1      0.0000
    21 HN       3.0834  -1.7845  -0.9783   H         1 1      0.0000
    22 C        5.1412  -1.5042  -0.5625   C.3       1 1      0.0000
    23 H1A      5.1419  -2.4668  -0.0554   H         1 1      0.0000
    24 H1C      5.6929  -1.6117  -1.4941   H         1 1      0.0000
    25 H1B      5.6714  -0.7904   0.0643   H         1 1      0.0000
    26 H10A    -0.7096  -0.3293  -1.1731   H         1 1      0.0000
    27 H10B    -0.6704   1.2617  -0.3924   H         1 1      0.0000
    28 H9B     -1.3314  -1.3752   0.9876   H         1 1      0.0000
    29 H5      -6.6235   0.5127  -0.5749   H         1 1      0.0000
    30 H3      -3.1117  -1.9157  -0.6468   H         1 1      0.0000
    31 H12B     1.5844   0.0271  -1.9471   H         1 1      0.0000
    32 C15      4.1626   1.7053   1.0843   C.3       1 1      0.0000
    33 H15A     3.1308   1.9763   1.3399   H         1 1      0.0000
    34 H15C     4.7923   2.5870   1.2561   H         1 1      0.0000
    35 OH       1.2668   0.6896   1.3204   O.3       1 1      0.0000
    36 OH1      0.6994   0.3438   2.0528   H         1 1      0.0000
    37 H22      1.1520  -1.0883   0.2674   H         1 1      0.0000
    38 C16      4.6196   0.5853   1.9902   C.3       1 1      0.0000
    39 H16C     5.6495   0.3098   1.7734   H         1 1      0.0000
    40 H16A     4.5618   0.8859   3.0343   H         1 1      0.0000
    41 H16B     3.9974  -0.2971   1.8566   H         1 1      0.0000
@<TRIPOS>BOND
     1     1     2   ar
     2     1     6   ar
     3     1    29    1
     4     2     3   ar
     5     2     7    1
     6     3     4   ar
     7     3    30    1
     8     4     5   ar
     9     4     8    1
    10     5     6   ar
    11     5     9    1
    12     6    10    1
    13     8    11    1
    14     8    12    1
    15     8    28    1
    16    11    13    1
    17    11    26    1
    18    11    27    1
    19    13    14    1
    20    14    15    1
    21    14    16    1
    22    14    31    1
    23    16    17    1
    24    16    20    2
    25    17    18    1
    26    17    19    1
    27    17    32    1
    28    20    21    1
    29    20    22    1
    30    22    23    1
    31    22    24    1
    32    22    25    1
    33    32    33    1
    34    32    34    1
    35    13    35    1
    36    35    36    1
    37    13    37    1
    38    32    38    1
    39    38    39    1
    40    38    40    1
    41    38    41    1
@<TRIPOS>SUBSTRUCTURE
     1 1           1 GROUP             0 ****  ****    0  
@<TRIPOS>MOLECULE
Molecule Name_00001_00229
    41    41     1     0     0
SMALL
NO_CHARGES
****
Generated from the CSD

@<TRIPOS>ATOM
     1 C5      -5.4784   0.4296   0.7954   C.ar      1 1      0.0000
     2 C4      -5.3156   0.4472  -0.5731   C.ar      1 1      0.0000
     3 C3      -4.0490   0.3480  -1.1242   C.ar      1 1      0.0000
     4 C8      -2.9296   0.2290  -0.3149   C.ar      1 1      0.0000
     5 C7      -3.1081   0.2139   1.0599   C.ar      1 1      0.0000
     6 C6      -4.3743   0.3131   1.6120   C.ar      1 1      0.0000
     7 H4      -6.1818   0.5392  -1.2200   H         1 1      0.0000
     8 C9      -1.5488   0.1241  -0.9160   C.3       1 1      0.0000
     9 H7      -2.2452   0.1231   1.7112   H         1 1      0.0000
    10 H6      -4.4974   0.2991   2.6899   H         1 1      0.0000
    11 C10     -0.4455  -0.0001   0.1329   C.3       1 1      0.0000
    12 H9A     -1.5136  -0.7511  -1.5764   H         1 1      0.0000
    13 C11      0.9671  -0.1091  -0.4181   C.3       1 1      0.0000
    14 C12      2.0051  -0.2099   0.6941   C.3       1 1      0.0000
    15 H12A     1.8346  -1.1336   1.2609   H         1 1      0.0000
    16 C13      3.4126  -0.2056   0.1797   C.2       1 1      0.0000
    17 C14      3.9610   1.0955  -0.3243   C.3       1 1      0.0000
    18 H14B     3.1586   1.6413  -0.8359   H         1 1      0.0000
    19 H14A     4.7472   0.8944  -1.0622   H         1 1      0.0000
    20 N        4.1384  -1.3058   0.1909   N.pl3     1 1      0.0000
    21 HN       3.7188  -2.1224   0.6350   H         1 1      0.0000
    22 C        5.5222  -1.4393  -0.2409   C.3       1 1      0.0000
    23 H1A      6.0504  -2.1635   0.3757   H         1 1      0.0000
    24 H1C      5.5725  -1.7742  -1.2749   H         1 1      0.0000
    25 H1B      6.0436  -0.4874  -0.1678   H         1 1      0.0000
    26 H10A    -0.4932   0.8773   0.7896   H         1 1      0.0000
    27 H10B    -0.6477  -0.8880   0.7445   H         1 1      0.0000
    28 H9B     -1.3593   1.0133  -1.5299   H         1 1      0.0000
    29 H5      -6.4706   0.5071   1.2275   H         1 1      0.0000
    30 H3      -3.9313   0.3634  -2.2027   H         1 1      0.0000
    31 H12B     1.8742   0.6335   1.3833   H         1 1      0.0000
    32 C15      4.5281   1.9771   0.7730   C.3       1 1      0.0000
    33 H15A     5.0347   2.8371   0.3178   H         1 1      0.0000
    34 H15C     5.2767   1.4096   1.3397   H         1 1      0.0000
    35 OH       1.0548  -1.2711  -1.2475   O.3       1 1      0.0000
    36 OH1      0.4023  -1.1991  -1.9871   H         1 1      0.0000
    37 H22      1.1827   0.7827  -1.0268   H         1 1      0.0000
    38 C16      3.4614   2.4750   1.7206   C.3       1 1      0.0000
    39 H16C     3.1865   1.7002   2.4333   H         1 1      0.0000
    40 H16A     3.8145   3.3394   2.2790   H         1 1      0.0000
    41 H16B     2.5664   2.7665   1.1749   H         1 1      0.0000
@<TRIPOS>BOND
     1     1     2   ar
     2     1     6   ar
     3     1    29    1
     4     2     3   ar
     5     2     7    1
     6     3     4   ar
     7     3    30    1
     8     4     5   ar
     9     4     8    1
    10     5     6   ar
    11     5     9    1
    12     6    10    1
    13     8    11    1
    14     8    12    1
    15     8    28    1
    16    11    13    1
    17    11    26    1
    18    11    27    1
    19    13    14    1
    20    14    15    1
    21    14    16    1
    22    14    31    1
    23    16    17    1
    24    16    20    2
    25    17    18    1
    26    17    19    1
    27    17    32    1
    28    20    21    1
    29    20    22    1
    30    22    23    1
    31    22    24    1
    32    22    25    1
    33    32    33    1
    34    32    34    1
    35    13    35    1
    36    35    36    1
    37    13    37    1
    38    32    38    1
    39    38    39    1
    40    38    40    1
    41    38    41    1
@<TRIPOS>SUBSTRUCTURE
     1 1           1 GROUP             0 ****  ****    0  
@<TRIPOS>MOLECULE
Molecule Name_00001_00230
    41    41     1     0     0
SMALL
NO_CHARGES
****
Generated from the CSD

@<TRIPOS>ATOM
     1 C5      -5.6212   0.4251   0.6722   C.ar      1 1      0.0000
     2 C4      -5.4328   0.2847  -0.6858   C.ar      1 1      0.0000
     3 C3      -4.1540   0.1531  -1.2008   C.ar      1 1      0.0000
     4 C8      -3.0477   0.1593  -0.3651   C.ar      1 1      0.0000
     5 C7      -3.2520   0.3024   0.9987   C.ar      1 1      0.0000
     6 C6      -4.5305   0.4341   1.5146   C.ar      1 1      0.0000
     7 H4      -6.2884   0.2774  -1.3531   H         1 1      0.0000
     8 C9      -1.6537   0.0190  -0.9271   C.3       1 1      0.0000
     9 H7      -2.3997   0.3114   1.6701   H         1 1      0.0000
    10 H6      -4.6737   0.5447   2.5844   H         1 1      0.0000
    11 C10     -0.5680   0.0479   0.1469   C.3       1 1      0.0000
    12 H9A     -1.5855  -0.9271  -1.4782   H         1 1      0.0000
    13 C11      0.8571  -0.0897  -0.3644   C.3       1 1      0.0000
    14 C12      1.8757  -0.0320   0.7686   C.3       1 1      0.0000
    15 H12A     1.7159  -0.8861   1.4382   H         1 1      0.0000
    16 C13      3.2922  -0.0529   0.2802   C.2       1 1      0.0000
    17 C14      3.8230   1.1964  -0.3565   C.3       1 1      0.0000
    18 H14B     3.0363   1.6337  -0.9835   H         1 1      0.0000
    19 H14A     4.6637   0.9385  -1.0121   H         1 1      0.0000
    20 N        4.0404  -1.1283   0.4258   N.pl3     1 1      0.0000
    21 HN       3.6294  -1.8998   0.9511   H         1 1      0.0000
    22 C        5.4345  -1.2775   0.0343   C.3       1 1      0.0000
    23 H1A      5.9716  -1.8972   0.7493   H         1 1      0.0000
    24 H1C      5.5118  -1.7456  -0.9448   H         1 1      0.0000
    25 H1B      5.9285  -0.3094  -0.0135   H         1 1      0.0000
    26 H10A    -0.6486   0.9954   0.6938   H         1 1      0.0000
    27 H10B    -0.7611  -0.7663   0.8563   H         1 1      0.0000
    28 H9B     -1.4732   0.8338  -1.6391   H         1 1      0.0000
    29 H5      -6.6229   0.5280   1.0760   H         1 1      0.0000
    30 H3      -4.0161   0.0438  -2.2714   H         1 1      0.0000
    31 H12B     1.7121   0.8834   1.3506   H         1 1      0.0000
    32 C15      4.2819   2.2376   0.6476   C.3       1 1      0.0000
    33 H15A     3.4527   2.4730   1.3261   H         1 1      0.0000
    34 H15C     4.5495   3.1582   0.1145   H         1 1      0.0000
    35 OH       0.9875  -1.3390  -1.0485   O.3       1 1      0.0000
    36 OH1      0.3542  -1.3678  -1.8075   H         1 1      0.0000
    37 H22      1.0634   0.7290  -1.0710   H         1 1      0.0000
    38 C16      5.4687   1.7714   1.4587   C.3       1 1      0.0000
    39 H16C     6.3153   1.5509   0.8118   H         1 1      0.0000
    40 H16A     5.7751   2.5366   2.1689   H         1 1      0.0000
    41 H16B     5.2245   0.8697   2.0164   H         1 1      0.0000
@<TRIPOS>BOND
     1     1     2   ar
     2     1     6   ar
     3     1    29    1
     4     2     3   ar
     5     2     7    1
     6     3     4   ar
     7     3    30    1
     8     4     5   ar
     9     4     8    1
    10     5     6   ar
    11     5     9    1
    12     6    10    1
    13     8    11    1
    14     8    12    1
    15     8    28    1
    16    11    13    1
    17    11    26    1
    18    11    27    1
    19    13    14    1
    20    14    15    1
    21    14    16    1
    22    14    31    1
    23    16    17    1
    24    16    20    2
    25    17    18    1
    26    17    19    1
    27    17    32    1
    28    20    21    1
    29    20    22    1
    30    22    23    1
    31    22    24    1
    32    22    25    1
    33    32    33    1
    34    32    34    1
    35    13    35    1
    36    35    36    1
    37    13    37    1
    38    32    38    1
    39    38    39    1
    40    38    40    1
    41    38    41    1
@<TRIPOS>SUBSTRUCTURE
     1 1           1 GROUP             0 ****  ****    0  
@<TRIPOS>MOLECULE
Molecule Name_00001_00231
    41    41     1     0     0
SMALL
NO_CHARGES
****
Generated from the CSD

@<TRIPOS>ATOM
     1 C5      -5.5975  -0.1332  -0.0918   C.ar      1 1      0.0000
     2 C4      -5.2658   0.8710   0.7919   C.ar      1 1      0.0000
     3 C3      -3.9362   1.1712   1.0366   C.ar      1 1      0.0000
     4 C8      -2.9216   0.4723   0.4007   C.ar      1 1      0.0000
     5 C7      -3.2698  -0.5360  -0.4848   C.ar      1 1      0.0000
     6 C6      -4.5992  -0.8370  -0.7302   C.ar      1 1      0.0000
     7 H4      -6.0482   1.4276   1.2972   H         1 1      0.0000
     8 C9      -1.4724   0.7977   0.6701   C.3       1 1      0.0000
     9 H7      -2.4912  -1.0963  -0.9919   H         1 1      0.0000
    10 H6      -4.8553  -1.6287  -1.4265   H         1 1      0.0000
    11 C10     -0.5034  -0.0774  -0.1226   C.3       1 1      0.0000
    12 H9A     -1.2909   1.8498   0.4180   H         1 1      0.0000
    13 C11      0.9714   0.2080   0.1109   C.3       1 1      0.0000
    14 C12      1.8660  -0.7206  -0.7028   C.3       1 1      0.0000
    15 H12A     1.6529  -0.5797  -1.7696   H         1 1      0.0000
    16 C13      3.3257  -0.4829  -0.4609   C.2       1 1      0.0000
    17 C14      3.9047  -0.9871   0.8268   C.3       1 1      0.0000
    18 H14B     4.9561  -1.2518   0.6603   H         1 1      0.0000
    19 H14A     3.3768  -1.9005   1.1269   H         1 1      0.0000
    20 N        4.0674   0.1316  -1.3608   N.pl3     1 1      0.0000
    21 HN       3.6134   0.3586  -2.2453   H         1 1      0.0000
    22 C        5.4962   0.3967  -1.2760   C.3       1 1      0.0000
    23 H1A      5.9209   0.5421  -2.2671   H         1 1      0.0000
    24 H1C      5.6876   1.2937  -0.6907   H         1 1      0.0000
    25 H1B      6.0162  -0.4334  -0.8028   H         1 1      0.0000
    26 H10A    -0.6970  -1.1263   0.1338   H         1 1      0.0000
    27 H10B    -0.7157   0.0512  -1.1912   H         1 1      0.0000
    28 H9B     -1.2724   0.6718   1.7413   H         1 1      0.0000
    29 H5      -6.6391  -0.3686  -0.2839   H         1 1      0.0000
    30 H3      -3.6854   1.9632   1.7345   H         1 1      0.0000
    31 H12B     1.6268  -1.7607  -0.4493   H         1 1      0.0000
    32 C15      3.8286   0.0210   1.9585   C.3       1 1      0.0000
    33 H15A     4.1761  -0.4518   2.8854   H         1 1      0.0000
    34 H15C     2.7829   0.3178   2.1063   H         1 1      0.0000
    35 OH       1.2467   1.5631  -0.2549   O.3       1 1      0.0000
    36 OH1      0.6896   2.1721   0.2898   H         1 1      0.0000
    37 H22      1.1963   0.0726   1.1801   H         1 1      0.0000
    38 C16      4.6606   1.2533   1.6888   C.3       1 1      0.0000
    39 H16C     4.3233   1.7561   0.7848   H         1 1      0.0000
    40 H16A     4.5870   1.9569   2.5154   H         1 1      0.0000
    41 H16B     5.7084   0.9905   1.5596   H         1 1      0.0000
@<TRIPOS>BOND
     1     1     2   ar
     2     1     6   ar
     3     1    29    1
     4     2     3   ar
     5     2     7    1
     6     3     4   ar
     7     3    30    1
     8     4     5   ar
     9     4     8    1
    10     5     6   ar
    11     5     9    1
    12     6    10    1
    13     8    11    1
    14     8    12    1
    15     8    28    1
    16    11    13    1
    17    11    26    1
    18    11    27    1
    19    13    14    1
    20    14    15    1
    21    14    16    1
    22    14    31    1
    23    16    17    1
    24    16    20    2
    25    17    18    1
    26    17    19    1
    27    17    32    1
    28    20    21    1
    29    20    22    1
    30    22    23    1
    31    22    24    1
    32    22    25    1
    33    32    33    1
    34    32    34    1
    35    13    35    1
    36    35    36    1
    37    13    37    1
    38    32    38    1
    39    38    39    1
    40    38    40    1
    41    38    41    1
@<TRIPOS>SUBSTRUCTURE
     1 1           1 GROUP             0 ****  ****    0  
@<TRIPOS>MOLECULE
Molecule Name_00001_00232
    41    41     1     0     0
SMALL
NO_CHARGES
****
Generated from the CSD

@<TRIPOS>ATOM
     1 C5      -5.6377   0.3786  -0.5857   C.ar      1 1      0.0000
     2 C4      -5.4806  -0.0743   0.7065   C.ar      1 1      0.0000
     3 C3      -4.2117  -0.2719   1.2249   C.ar      1 1      0.0000
     4 C8      -3.0842  -0.0188   0.4588   C.ar      1 1      0.0000
     5 C7      -3.2572   0.4352  -0.8397   C.ar      1 1      0.0000
     6 C6      -4.5257   0.6332  -1.3590   C.ar      1 1      0.0000
     7 H4      -6.3531  -0.2764   1.3190   H         1 1      0.0000
     8 C9      -1.7013  -0.2374   1.0232   C.3       1 1      0.0000
     9 H7      -2.3880   0.6379  -1.4566   H         1 1      0.0000
    10 H6      -4.6443   0.9895  -2.3769   H         1 1      0.0000
    11 C10     -0.5887   0.0959   0.0312   C.3       1 1      0.0000
    12 H9A     -1.5796   0.3849   1.9184   H         1 1      0.0000
    13 C11      0.8265  -0.1065   0.5483   C.3       1 1      0.0000
    14 C12      1.8719   0.2304  -0.5092   C.3       1 1      0.0000
    15 H12A     1.8310   1.3055  -0.7239   H         1 1      0.0000
    16 C13      3.2640  -0.1307  -0.0881   C.2       1 1      0.0000
    17 C14      3.9476   0.7755   0.8913   C.3       1 1      0.0000
    18 H14B     4.7199   0.2036   1.4203   H         1 1      0.0000
    19 H14A     3.2191   1.1164   1.6370   H         1 1      0.0000
    20 N        3.8495  -1.2160  -0.5536   N.pl3     1 1      0.0000
    21 HN       3.2794  -1.8227  -1.1426   H         1 1      0.0000
    22 C        5.1755  -1.7060  -0.2061   C.3       1 1      0.0000
    23 H1A      5.2727  -2.7617  -0.4504   H         1 1      0.0000
    24 H1C      5.9430  -1.1602  -0.7508   H         1 1      0.0000
    25 H1B      5.3656  -1.5855   0.8583   H         1 1      0.0000
    26 H10A    -0.7230  -0.5284  -0.8607   H         1 1      0.0000
    27 H10B    -0.6990   1.1440  -0.2734   H         1 1      0.0000
    28 H9B     -1.6036  -1.2861   1.3300   H         1 1      0.0000
    29 H5      -6.6316   0.5338  -0.9921   H         1 1      0.0000
    30 H3      -4.0986  -0.6293   2.2431   H         1 1      0.0000
    31 H12B     1.6290  -0.3044  -1.4357   H         1 1      0.0000
    32 C15      4.5942   1.9861   0.2440   C.3       1 1      0.0000
    33 H15A     4.9737   2.6534   1.0276   H         1 1      0.0000
    34 H15C     3.8361   2.5372  -0.3262   H         1 1      0.0000
    35 OH       1.0289   0.7303   1.6905   O.3       1 1      0.0000
    36 OH1      0.3709   0.4978   2.3912   H         1 1      0.0000
    37 H22      0.9498  -1.1586   0.8485   H         1 1      0.0000
    38 C16      5.7303   1.6080  -0.6779   C.3       1 1      0.0000
    39 H16C     5.3780   0.9623  -1.4796   H         1 1      0.0000
    40 H16A     6.1741   2.4942  -1.1268   H         1 1      0.0000
    41 H16B     6.5089   1.0779  -0.1332   H         1 1      0.0000
@<TRIPOS>BOND
     1     1     2   ar
     2     1     6   ar
     3     1    29    1
     4     2     3   ar
     5     2     7    1
     6     3     4   ar
     7     3    30    1
     8     4     5   ar
     9     4     8    1
    10     5     6   ar
    11     5     9    1
    12     6    10    1
    13     8    11    1
    14     8    12    1
    15     8    28    1
    16    11    13    1
    17    11    26    1
    18    11    27    1
    19    13    14    1
    20    14    15    1
    21    14    16    1
    22    14    31    1
    23    16    17    1
    24    16    20    2
    25    17    18    1
    26    17    19    1
    27    17    32    1
    28    20    21    1
    29    20    22    1
    30    22    23    1
    31    22    24    1
    32    22    25    1
    33    32    33    1
    34    32    34    1
    35    13    35    1
    36    35    36    1
    37    13    37    1
    38    32    38    1
    39    38    39    1
    40    38    40    1
    41    38    41    1
@<TRIPOS>SUBSTRUCTURE
     1 1           1 GROUP             0 ****  ****    0  
@<TRIPOS>MOLECULE
Molecule Name_00001_00233
    41    41     1     0     0
SMALL
NO_CHARGES
****
Generated from the CSD

@<TRIPOS>ATOM
     1 C5      -5.5277   0.5441  -0.4590   C.ar      1 1      0.0000
     2 C4      -5.3608  -0.0559   0.7704   C.ar      1 1      0.0000
     3 C3      -4.0893  -0.3470   1.2355   C.ar      1 1      0.0000
     4 C8      -2.9688  -0.0415   0.4783   C.ar      1 1      0.0000
     5 C7      -3.1516   0.5608  -0.7570   C.ar      1 1      0.0000
     6 C6      -4.4228   0.8524  -1.2230   C.ar      1 1      0.0000
     7 H4      -6.2277  -0.3008   1.3753   H         1 1      0.0000
     8 C9      -1.5831  -0.3619   0.9842   C.3       1 1      0.0000
     9 H7      -2.2882   0.8069  -1.3662   H         1 1      0.0000
    10 H6      -4.5491   1.3245  -2.1917   H         1 1      0.0000
    11 C10     -0.4793   0.0492   0.0118   C.3       1 1      0.0000
    12 H9A     -1.4257   0.1517   1.9406   H         1 1      0.0000
    13 C11      0.9383  -0.2508   0.4718   C.3       1 1      0.0000
    14 C12      1.9739   0.1734  -0.5638   C.3       1 1      0.0000
    15 H12A     1.9603   1.2663  -0.6575   H         1 1      0.0000
    16 C13      3.3622  -0.2695  -0.2146   C.2       1 1      0.0000
    17 C14      4.0904   0.5055   0.8423   C.3       1 1      0.0000
    18 H14B     4.8166  -0.1579   1.3279   H         1 1      0.0000
    19 H14A     3.3758   0.8311   1.6081   H         1 1      0.0000
    20 N        3.9067  -1.3132  -0.8075   N.pl3     1 1      0.0000
    21 HN       3.3081  -1.8363  -1.4463   H         1 1      0.0000
    22 C        5.2238  -1.8743  -0.5439   C.3       1 1      0.0000
    23 H1A      5.2772  -2.9076  -0.8804   H         1 1      0.0000
    24 H1C      5.9946  -1.3087  -1.0633   H         1 1      0.0000
    25 H1B      5.4475  -1.8524   0.5205   H         1 1      0.0000
    26 H10A    -0.6493  -0.4665  -0.9414   H         1 1      0.0000
    27 H10B    -0.5628   1.1276  -0.1708   H         1 1      0.0000
    28 H9B     -1.5123  -1.4409   1.1691   H         1 1      0.0000
    29 H5      -6.5237   0.7726  -0.8236   H         1 1      0.0000
    30 H3      -3.9684  -0.8200   2.2044   H         1 1      0.0000
    31 H12B     1.6990  -0.2486  -1.5384   H         1 1      0.0000
    32 C15      4.8232   1.7200   0.3032   C.3       1 1      0.0000
    33 H15A     5.4975   1.4050  -0.5027   H         1 1      0.0000
    34 H15C     5.4369   2.1540   1.1022   H         1 1      0.0000
    35 OH       1.1875   0.4456   1.6960   O.3       1 1      0.0000
    36 OH1      0.5361   0.1539   2.3806   H         1 1      0.0000
    37 H22      1.0345  -1.3331   0.6492   H         1 1      0.0000
    38 C16      3.8786   2.7747  -0.2252   C.3       1 1      0.0000
    39 H16C     3.0540   2.9352   0.4662   H         1 1      0.0000
    40 H16A     4.3958   3.7222  -0.3616   H         1 1      0.0000
    41 H16B     3.4629   2.4743  -1.1847   H         1 1      0.0000
@<TRIPOS>BOND
     1     1     2   ar
     2     1     6   ar
     3     1    29    1
     4     2     3   ar
     5     2     7    1
     6     3     4   ar
     7     3    30    1
     8     4     5   ar
     9     4     8    1
    10     5     6   ar
    11     5     9    1
    12     6    10    1
    13     8    11    1
    14     8    12    1
    15     8    28    1
    16    11    13    1
    17    11    26    1
    18    11    27    1
    19    13    14    1
    20    14    15    1
    21    14    16    1
    22    14    31    1
    23    16    17    1
    24    16    20    2
    25    17    18    1
    26    17    19    1
    27    17    32    1
    28    20    21    1
    29    20    22    1
    30    22    23    1
    31    22    24    1
    32    22    25    1
    33    32    33    1
    34    32    34    1
    35    13    35    1
    36    35    36    1
    37    13    37    1
    38    32    38    1
    39    38    39    1
    40    38    40    1
    41    38    41    1
@<TRIPOS>SUBSTRUCTURE
     1 1           1 GROUP             0 ****  ****    0  
@<TRIPOS>MOLECULE
Molecule Name_00001_00234
    41    41     1     0     0
SMALL
NO_CHARGES
****
Generated from the CSD

@<TRIPOS>ATOM
     1 C5      -5.3915   0.5300   0.5849   C.ar      1 1      0.0000
     2 C4      -4.9894   0.1210  -0.6682   C.ar      1 1      0.0000
     3 C3      -3.6629  -0.2005  -0.9027   C.ar      1 1      0.0000
     4 C8      -2.7221  -0.1181   0.1123   C.ar      1 1      0.0000
     5 C7      -3.1404   0.2960   1.3676   C.ar      1 1      0.0000
     6 C6      -4.4667   0.6177   1.6030   C.ar      1 1      0.0000
     7 H4      -5.7137   0.0507  -1.4730   H         1 1      0.0000
     8 C9      -1.2756  -0.4654  -0.1445   C.3       1 1      0.0000
     9 H7      -2.4198   0.3689   2.1755   H         1 1      0.0000
    10 H6      -4.7784   0.9395   2.5912   H         1 1      0.0000
    11 C10     -0.4581   0.7153  -0.6647   C.3       1 1      0.0000
    12 H9A     -0.8256  -0.8279   0.7880   H         1 1      0.0000
    13 C11      1.0076   0.4208  -0.9406   C.3       1 1      0.0000
    14 C12      1.7552   0.0196   0.3262   C.3       1 1      0.0000
    15 H12A     1.3311  -0.9158   0.7117   H         1 1      0.0000
    16 C13      3.2249  -0.1670   0.1010   C.2       1 1      0.0000
    17 C14      4.0565   1.0648  -0.0963   C.3       1 1      0.0000
    18 H14B     3.4734   1.7950  -0.6710   H         1 1      0.0000
    19 H14A     4.9440   0.8103  -0.6883   H         1 1      0.0000
    20 N        3.7592  -1.3720   0.0962   N.pl3     1 1      0.0000
    21 HN       3.1370  -2.1457   0.3295   H         1 1      0.0000
    22 C        5.1677  -1.6982  -0.0731   C.3       1 1      0.0000
    23 H1A      5.4370  -2.5663   0.5249   H         1 1      0.0000
    24 H1C      5.3887  -1.9226  -1.1145   H         1 1      0.0000
    25 H1B      5.7971  -0.8660   0.2348   H         1 1      0.0000
    26 H10A    -0.9195   1.0718  -1.5939   H         1 1      0.0000
    27 H10B    -0.5153   1.5269   0.0710   H         1 1      0.0000
    28 H9B     -1.2299  -1.2814  -0.8763   H         1 1      0.0000
    29 H5      -6.4307   0.7817   0.7690   H         1 1      0.0000
    30 H3      -3.3562  -0.5209  -1.8929   H         1 1      0.0000
    31 H12B     1.6063   0.7931   1.0898   H         1 1      0.0000
    32 C15      4.4992   1.7090   1.2044   C.3       1 1      0.0000
    33 H15A     5.2142   2.5111   0.9835   H         1 1      0.0000
    34 H15C     5.0153   0.9610   1.8190   H         1 1      0.0000
    35 OH       1.0974  -0.6416  -1.8940   O.3       1 1      0.0000
    36 OH1      0.6346  -0.3779  -2.7272   H         1 1      0.0000
    37 H22      1.4795   1.3217  -1.3624   H         1 1      0.0000
    38 C16      3.3400   2.2803   1.9877   C.3       1 1      0.0000
    39 H16C     2.8060   1.4930   2.5157   H         1 1      0.0000
    40 H16A     3.6895   3.0037   2.7214   H         1 1      0.0000
    41 H16B     2.6370   2.7816   1.3258   H         1 1      0.0000
@<TRIPOS>BOND
     1     1     2   ar
     2     1     6   ar
     3     1    29    1
     4     2     3   ar
     5     2     7    1
     6     3     4   ar
     7     3    30    1
     8     4     5   ar
     9     4     8    1
    10     5     6   ar
    11     5     9    1
    12     6    10    1
    13     8    11    1
    14     8    12    1
    15     8    28    1
    16    11    13    1
    17    11    26    1
    18    11    27    1
    19    13    14    1
    20    14    15    1
    21    14    16    1
    22    14    31    1
    23    16    17    1
    24    16    20    2
    25    17    18    1
    26    17    19    1
    27    17    32    1
    28    20    21    1
    29    20    22    1
    30    22    23    1
    31    22    24    1
    32    22    25    1
    33    32    33    1
    34    32    34    1
    35    13    35    1
    36    35    36    1
    37    13    37    1
    38    32    38    1
    39    38    39    1
    40    38    40    1
    41    38    41    1
@<TRIPOS>SUBSTRUCTURE
     1 1           1 GROUP             0 ****  ****    0  
@<TRIPOS>MOLECULE
Molecule Name_00001_00235
    41    41     1     0     0
SMALL
NO_CHARGES
****
Generated from the CSD

@<TRIPOS>ATOM
     1 C5      -5.5212   0.4988   0.4625   C.ar      1 1      0.0000
     2 C4      -5.0906  -0.0753  -0.7141   C.ar      1 1      0.0000
     3 C3      -3.7522  -0.3861  -0.8874   C.ar      1 1      0.0000
     4 C8      -2.8278  -0.1279   0.1131   C.ar      1 1      0.0000
     5 C7      -3.2748   0.4510   1.2909   C.ar      1 1      0.0000
     6 C6      -4.6130   0.7621   1.4651   C.ar      1 1      0.0000
     7 H4      -5.8018  -0.2842  -1.5065   H         1 1      0.0000
     8 C9      -1.3685  -0.4639  -0.0775   C.3       1 1      0.0000
     9 H7      -2.5676   0.6628   2.0859   H         1 1      0.0000
    10 H6      -4.9472   1.2143   2.3931   H         1 1      0.0000
    11 C10     -0.5792   0.6535  -0.7568   C.3       1 1      0.0000
    12 H9A     -0.9205  -0.6728   0.9018   H         1 1      0.0000
    13 C11      0.8981   0.3678  -0.9739   C.3       1 1      0.0000
    14 C12      1.6402   0.1782   0.3445   C.3       1 1      0.0000
    15 H12A     1.2387  -0.7040   0.8583   H         1 1      0.0000
    16 C13      3.1176   0.0066   0.1619   C.2       1 1      0.0000
    17 C14      3.9167   1.2238  -0.1952   C.3       1 1      0.0000
    18 H14B     3.3442   1.8223  -0.9145   H         1 1      0.0000
    19 H14A     4.8462   0.9138  -0.6881   H         1 1      0.0000
    20 N        3.6859  -1.1710   0.3289   N.pl3     1 1      0.0000
    21 HN       3.0826  -1.9236   0.6604   H         1 1      0.0000
    22 C        5.1053  -1.4751   0.2204   C.3       1 1      0.0000
    23 H1A      5.3954  -2.2273   0.9509   H         1 1      0.0000
    24 H1C      5.3431  -1.8559  -0.7707   H         1 1      0.0000
    25 H1B      5.7058  -0.5847   0.3938   H         1 1      0.0000
    26 H10A    -1.0384   0.8568  -1.7321   H         1 1      0.0000
    27 H10B    -0.6701   1.5613  -0.1477   H         1 1      0.0000
    28 H9B     -1.2890  -1.3756  -0.6823   H         1 1      0.0000
    29 H5      -6.5697   0.7422   0.5987   H         1 1      0.0000
    30 H3      -3.4230  -0.8373  -1.8176   H         1 1      0.0000
    31 H12B     1.4585   1.0494   0.9859   H         1 1      0.0000
    32 C15      4.2586   2.0936   1.0004   C.3       1 1      0.0000
    33 H15A     3.3326   2.3777   1.5152   H         1 1      0.0000
    34 H15C     4.7419   3.0138   0.6495   H         1 1      0.0000
    35 OH       1.0318  -0.8186  -1.7615   O.3       1 1      0.0000
    36 OH1      0.5726  -0.6932  -2.6283   H         1 1      0.0000
    37 H22      1.3488   1.2120  -1.5182   H         1 1      0.0000
    38 C16      5.1744   1.3941   1.9781   C.3       1 1      0.0000
    39 H16C     6.1120   1.1194   1.4994   H         1 1      0.0000
    40 H16A     5.4019   2.0402   2.8234   H         1 1      0.0000
    41 H16B     4.7103   0.4872   2.3600   H         1 1      0.0000
@<TRIPOS>BOND
     1     1     2   ar
     2     1     6   ar
     3     1    29    1
     4     2     3   ar
     5     2     7    1
     6     3     4   ar
     7     3    30    1
     8     4     5   ar
     9     4     8    1
    10     5     6   ar
    11     5     9    1
    12     6    10    1
    13     8    11    1
    14     8    12    1
    15     8    28    1
    16    11    13    1
    17    11    26    1
    18    11    27    1
    19    13    14    1
    20    14    15    1
    21    14    16    1
    22    14    31    1
    23    16    17    1
    24    16    20    2
    25    17    18    1
    26    17    19    1
    27    17    32    1
    28    20    21    1
    29    20    22    1
    30    22    23    1
    31    22    24    1
    32    22    25    1
    33    32    33    1
    34    32    34    1
    35    13    35    1
    36    35    36    1
    37    13    37    1
    38    32    38    1
    39    38    39    1
    40    38    40    1
    41    38    41    1
@<TRIPOS>SUBSTRUCTURE
     1 1           1 GROUP             0 ****  ****    0  
@<TRIPOS>MOLECULE
Molecule Name_00001_00236
    41    41     1     0     0
SMALL
NO_CHARGES
****
Generated from the CSD

@<TRIPOS>ATOM
     1 C5      -5.5492   0.2514   0.2695   C.ar      1 1      0.0000
     2 C4      -4.9453   0.6411  -0.9065   C.ar      1 1      0.0000
     3 C3      -3.5810   0.4746  -1.0763   C.ar      1 1      0.0000
     4 C8      -2.8034  -0.0839  -0.0735   C.ar      1 1      0.0000
     5 C7      -3.4240  -0.4702   1.1045   C.ar      1 1      0.0000
     6 C6      -4.7882  -0.3042   1.2753   C.ar      1 1      0.0000
     7 H4      -5.5402   1.0793  -1.7011   H         1 1      0.0000
     8 C9      -1.3158  -0.2622  -0.2578   C.3       1 1      0.0000
     9 H7      -2.8335  -0.9080   1.9026   H         1 1      0.0000
    10 H6      -5.2591  -0.6122   2.2030   H         1 1      0.0000
    11 C10     -0.5094   0.9719   0.1420   C.3       1 1      0.0000
    12 H9A     -0.9824  -1.1167   0.3441   H         1 1      0.0000
    13 C11      0.9966   0.8471  -0.0237   C.3       1 1      0.0000
    14 C12      1.5781  -0.2444   0.8681   C.3       1 1      0.0000
    15 H12A     1.1218  -1.2058   0.6018   H         1 1      0.0000
    16 C13      3.0674  -0.3614   0.7497   C.2       1 1      0.0000
    17 C14      3.8995   0.6884   1.4229   C.3       1 1      0.0000
    18 H14B     4.8501   0.2381   1.7343   H         1 1      0.0000
    19 H14A     3.3840   1.0324   2.3279   H         1 1      0.0000
    20 N        3.6153  -1.3634   0.0915   N.pl3     1 1      0.0000
    21 HN       2.9790  -2.0806  -0.2560   H         1 1      0.0000
    22 C        5.0385  -1.6215  -0.0726   C.3       1 1      0.0000
    23 H1A      5.2168  -2.6716  -0.2948   H         1 1      0.0000
    24 H1C      5.4460  -1.0286  -0.8888   H         1 1      0.0000
    25 H1B      5.5843  -1.3695   0.8341   H         1 1      0.0000
    26 H10A    -0.8541   1.8200  -0.4624   H         1 1      0.0000
    27 H10B    -0.7241   1.2001   1.1933   H         1 1      0.0000
    28 H9B     -1.1128  -0.4958  -1.3102   H         1 1      0.0000
    29 H5      -6.6181   0.3814   0.4028   H         1 1      0.0000
    30 H3      -3.1149   0.7851  -2.0056   H         1 1      0.0000
    31 H12B     1.3186  -0.0296   1.9121   H         1 1      0.0000
    32 C15      4.1934   1.8853   0.5374   C.3       1 1      0.0000
    33 H15A     4.7158   2.6490   1.1266   H         1 1      0.0000
    34 H15C     3.2466   2.3188   0.1925   H         1 1      0.0000
    35 OH       1.2909   0.5422  -1.3898   O.3       1 1      0.0000
    36 OH1      0.9369   1.2590  -1.9719   H         1 1      0.0000
    37 H22      1.4654   1.8083   0.2381   H         1 1      0.0000
    38 C16      5.0380   1.5208  -0.6615   C.3       1 1      0.0000
    39 H16C     4.5337   0.7791  -1.2774   H         1 1      0.0000
    40 H16A     5.2324   2.3968  -1.2769   H         1 1      0.0000
    41 H16B     5.9944   1.1076  -0.3483   H         1 1      0.0000
@<TRIPOS>BOND
     1     1     2   ar
     2     1     6   ar
     3     1    29    1
     4     2     3   ar
     5     2     7    1
     6     3     4   ar
     7     3    30    1
     8     4     5   ar
     9     4     8    1
    10     5     6   ar
    11     5     9    1
    12     6    10    1
    13     8    11    1
    14     8    12    1
    15     8    28    1
    16    11    13    1
    17    11    26    1
    18    11    27    1
    19    13    14    1
    20    14    15    1
    21    14    16    1
    22    14    31    1
    23    16    17    1
    24    16    20    2
    25    17    18    1
    26    17    19    1
    27    17    32    1
    28    20    21    1
    29    20    22    1
    30    22    23    1
    31    22    24    1
    32    22    25    1
    33    32    33    1
    34    32    34    1
    35    13    35    1
    36    35    36    1
    37    13    37    1
    38    32    38    1
    39    38    39    1
    40    38    40    1
    41    38    41    1
@<TRIPOS>SUBSTRUCTURE
     1 1           1 GROUP             0 ****  ****    0  
@<TRIPOS>MOLECULE
Molecule Name_00001_00237
    41    41     1     0     0
SMALL
NO_CHARGES
****
Generated from the CSD

@<TRIPOS>ATOM
     1 C5      -5.5154   0.2646  -0.4162   C.ar      1 1      0.0000
     2 C4      -5.0706   0.1877   0.8859   C.ar      1 1      0.0000
     3 C3      -3.7167   0.2731   1.1646   C.ar      1 1      0.0000
     4 C8      -2.7908   0.4371   0.1458   C.ar      1 1      0.0000
     5 C7      -3.2524   0.5115  -1.1594   C.ar      1 1      0.0000
     6 C6      -4.6061   0.4263  -1.4391   C.ar      1 1      0.0000
     7 H4      -5.7827   0.0600   1.6945   H         1 1      0.0000
     8 C9      -1.3149   0.5268   0.4497   C.3       1 1      0.0000
     9 H7      -2.5444   0.6382  -1.9717   H         1 1      0.0000
    10 H6      -4.9515   0.4870  -2.4659   H         1 1      0.0000
    11 C10     -0.6322  -0.8379   0.5182   C.3       1 1      0.0000
    12 H9A     -0.8278   1.1309  -0.3256   H         1 1      0.0000
    13 C11      0.8570  -0.8062   0.8219   C.3       1 1      0.0000
    14 C12      1.6440  -0.0849  -0.2667   C.3       1 1      0.0000
    15 H12A     1.3624   0.9754  -0.2699   H         1 1      0.0000
    16 C13      3.1272  -0.1955  -0.0837   C.2       1 1      0.0000
    17 C14      3.7617   0.6701   0.9631   C.3       1 1      0.0000
    18 H14B     4.7018   0.2040   1.2831   H         1 1      0.0000
    19 H14A     3.1024   0.7203   1.8383   H         1 1      0.0000
    20 N        3.8355  -1.0383  -0.8086   N.pl3     1 1      0.0000
    21 HN       3.3118  -1.6531  -1.4314   H         1 1      0.0000
    22 C        5.2685  -1.2758  -0.7139   C.3       1 1      0.0000
    23 H1A      5.5314  -2.2320  -1.1615   H         1 1      0.0000
    24 H1C      5.8234  -0.4958  -1.2312   H         1 1      0.0000
    25 H1B      5.5907  -1.2879   0.3251   H         1 1      0.0000
    26 H10A    -1.1300  -1.4343   1.2928   H         1 1      0.0000
    27 H10B    -0.7786  -1.3468  -0.4425   H         1 1      0.0000
    28 H9B     -1.1795   1.0422   1.4086   H         1 1      0.0000
    29 H5      -6.5761   0.1980  -0.6350   H         1 1      0.0000
    30 H3      -3.3764   0.2109   2.1930   H         1 1      0.0000
    31 H12B     1.3723  -0.5052  -1.2428   H         1 1      0.0000
    32 C15      4.0542   2.0801   0.4844   C.3       1 1      0.0000
    33 H15A     4.4109   2.6805   1.3303   H         1 1      0.0000
    34 H15C     3.1258   2.5359   0.1188   H         1 1      0.0000
    35 OH       1.0634  -0.1383   2.0698   O.3       1 1      0.0000
    36 OH1      0.5745  -0.6156   2.7848   H         1 1      0.0000
    37 H22      1.2268  -1.8400   0.9032   H         1 1      0.0000
    38 C16      5.0890   2.1112  -0.6165   C.3       1 1      0.0000
    39 H16C     4.7518   1.5404  -1.4791   H         1 1      0.0000
    40 H16A     5.2783   3.1329  -0.9391   H         1 1      0.0000
    41 H16B     6.0293   1.6843  -0.2741   H         1 1      0.0000
@<TRIPOS>BOND
     1     1     2   ar
     2     1     6   ar
     3     1    29    1
     4     2     3   ar
     5     2     7    1
     6     3     4   ar
     7     3    30    1
     8     4     5   ar
     9     4     8    1
    10     5     6   ar
    11     5     9    1
    12     6    10    1
    13     8    11    1
    14     8    12    1
    15     8    28    1
    16    11    13    1
    17    11    26    1
    18    11    27    1
    19    13    14    1
    20    14    15    1
    21    14    16    1
    22    14    31    1
    23    16    17    1
    24    16    20    2
    25    17    18    1
    26    17    19    1
    27    17    32    1
    28    20    21    1
    29    20    22    1
    30    22    23    1
    31    22    24    1
    32    22    25    1
    33    32    33    1
    34    32    34    1
    35    13    35    1
    36    35    36    1
    37    13    37    1
    38    32    38    1
    39    38    39    1
    40    38    40    1
    41    38    41    1
@<TRIPOS>SUBSTRUCTURE
     1 1           1 GROUP             0 ****  ****    0  
@<TRIPOS>MOLECULE
Molecule Name_00001_00238
    41    41     1     0     0
SMALL
NO_CHARGES
****
Generated from the CSD

@<TRIPOS>ATOM
     1 C5      -5.4030   0.3568  -0.2887   C.ar      1 1      0.0000
     2 C4      -4.9218   0.2171   0.9951   C.ar      1 1      0.0000
     3 C3      -3.5587   0.2628   1.2358   C.ar      1 1      0.0000
     4 C8      -2.6599   0.4495   0.1968   C.ar      1 1      0.0000
     5 C7      -3.1580   0.5874  -1.0896   C.ar      1 1      0.0000
     6 C6      -4.5209   0.5418  -1.3313   C.ar      1 1      0.0000
     7 H4      -5.6123   0.0709   1.8191   H         1 1      0.0000
     8 C9      -1.1740   0.4960   0.4592   C.3       1 1      0.0000
     9 H7      -2.4716   0.7328  -1.9172   H         1 1      0.0000
    10 H6      -4.8950   0.6520  -2.3438   H         1 1      0.0000
    11 C10     -0.5197  -0.8841   0.4514   C.3       1 1      0.0000
    12 H9A     -0.6969   1.1215  -0.3054   H         1 1      0.0000
    13 C11      0.9781  -0.8958   0.7108   C.3       1 1      0.0000
    14 C12      1.7484  -0.1466  -0.3710   C.3       1 1      0.0000
    15 H12A     1.4881   0.9180  -0.3242   H         1 1      0.0000
    16 C13      3.2336  -0.2925  -0.2357   C.2       1 1      0.0000
    17 C14      3.9150   0.5208   0.8236   C.3       1 1      0.0000
    18 H14B     4.8257  -0.0035   1.1387   H         1 1      0.0000
    19 H14A     3.2578   0.5977   1.6984   H         1 1      0.0000
    20 N        3.9037  -1.1208  -1.0117   N.pl3     1 1      0.0000
    21 HN       3.3502  -1.7016  -1.6414   H         1 1      0.0000
    22 C        5.3338  -1.3891  -0.9679   C.3       1 1      0.0000
    23 H1A      5.5614  -2.3446  -1.4356   H         1 1      0.0000
    24 H1C      5.8875  -0.6141  -1.4937   H         1 1      0.0000
    25 H1B      5.6899  -1.4212   0.0596   H         1 1      0.0000
    26 H10A    -1.0074  -1.5016   1.2159   H         1 1      0.0000
    27 H10B    -0.7055  -1.3498  -0.5243   H         1 1      0.0000
    28 H9B     -0.9992   0.9685   1.4337   H         1 1      0.0000
    29 H5      -6.4709   0.3214  -0.4777   H         1 1      0.0000
    30 H3      -3.1897   0.1512   2.2500   H         1 1      0.0000
    31 H12B     1.4408  -0.5225  -1.3546   H         1 1      0.0000
    32 C15      4.2902   1.9176   0.3642   C.3       1 1      0.0000
    33 H15A     4.9007   1.8456  -0.5444   H         1 1      0.0000
    34 H15C     4.8991   2.3998   1.1389   H         1 1      0.0000
    35 OH       1.2358  -0.2845   1.9779   O.3       1 1      0.0000
    36 OH1      0.7579  -0.7806   2.6875   H         1 1      0.0000
    37 H22      1.3275  -1.9396   0.7387   H         1 1      0.0000
    38 C16      3.0787   2.7751   0.0803   C.3       1 1      0.0000
    39 H16C     2.3404   2.6742   0.8731   H         1 1      0.0000
    40 H16A     3.3572   3.8244   0.0081   H         1 1      0.0000
    41 H16B     2.6108   2.4833  -0.8576   H         1 1      0.0000
@<TRIPOS>BOND
     1     1     2   ar
     2     1     6   ar
     3     1    29    1
     4     2     3   ar
     5     2     7    1
     6     3     4   ar
     7     3    30    1
     8     4     5   ar
     9     4     8    1
    10     5     6   ar
    11     5     9    1
    12     6    10    1
    13     8    11    1
    14     8    12    1
    15     8    28    1
    16    11    13    1
    17    11    26    1
    18    11    27    1
    19    13    14    1
    20    14    15    1
    21    14    16    1
    22    14    31    1
    23    16    17    1
    24    16    20    2
    25    17    18    1
    26    17    19    1
    27    17    32    1
    28    20    21    1
    29    20    22    1
    30    22    23    1
    31    22    24    1
    32    22    25    1
    33    32    33    1
    34    32    34    1
    35    13    35    1
    36    35    36    1
    37    13    37    1
    38    32    38    1
    39    38    39    1
    40    38    40    1
    41    38    41    1
@<TRIPOS>SUBSTRUCTURE
     1 1           1 GROUP             0 ****  ****    0  
@<TRIPOS>MOLECULE
Molecule Name_00001_00239
    41    41     1     0     0
SMALL
NO_CHARGES
****
Generated from the CSD

@<TRIPOS>ATOM
     1 C5      -5.5195  -0.2790  -0.0399   C.ar      1 1      0.0000
     2 C4      -4.9932   0.4657   0.9935   C.ar      1 1      0.0000
     3 C3      -3.6526   0.8132   0.9880   C.ar      1 1      0.0000
     4 C8      -2.8217   0.4216  -0.0505   C.ar      1 1      0.0000
     5 C7      -3.3644  -0.3281  -1.0827   C.ar      1 1      0.0000
     6 C6      -4.7048  -0.6761  -1.0781   C.ar      1 1      0.0000
     7 H4      -5.6305   0.7803   1.8133   H         1 1      0.0000
     8 C9      -1.3598   0.7978  -0.0545   C.3       1 1      0.0000
     9 H7      -2.7311  -0.6461  -1.9043   H         1 1      0.0000
    10 H6      -5.1146  -1.2628  -1.8937   H         1 1      0.0000
    11 C10     -0.4813  -0.1994   0.6984   C.3       1 1      0.0000
    12 H9A     -1.0126   0.8663  -1.0929   H         1 1      0.0000
    13 C11      1.0022   0.1312   0.7259   C.3       1 1      0.0000
    14 C12      1.6101   0.1341  -0.6724   C.3       1 1      0.0000
    15 H12A     1.4342   1.1118  -1.1377   H         1 1      0.0000
    16 C13      3.0821  -0.1470  -0.6683   C.2       1 1      0.0000
    17 C14      3.9868   0.9109  -0.1114   C.3       1 1      0.0000
    18 H14B     3.5459   1.8944  -0.3153   H         1 1      0.0000
    19 H14A     4.9534   0.8679  -0.6280   H         1 1      0.0000
    20 N        3.5517  -1.2915  -1.1230   N.pl3     1 1      0.0000
    21 HN       2.8604  -1.9893  -1.3975   H         1 1      0.0000
    22 C        4.9452  -1.7121  -1.1466   C.3       1 1      0.0000
    23 H1A      5.0276  -2.7833  -0.9755   H         1 1      0.0000
    24 H1C      5.3993  -1.4869  -2.1093   H         1 1      0.0000
    25 H1B      5.5166  -1.2005  -0.3750   H         1 1      0.0000
    26 H10A    -0.8402  -0.2629   1.7331   H         1 1      0.0000
    27 H10B    -0.6071  -1.1875   0.2387   H         1 1      0.0000
    28 H9B     -1.2459   1.7891   0.4014   H         1 1      0.0000
    29 H5      -6.5698  -0.5512  -0.0360   H         1 1      0.0000
    30 H3      -3.2476   1.3991   1.8064   H         1 1      0.0000
    31 H12B     1.1038  -0.6227  -1.2843   H         1 1      0.0000
    32 C15      4.2198   0.7807   1.3825   C.3       1 1      0.0000
    33 H15A     4.6712  -0.1968   1.5924   H         1 1      0.0000
    34 H15C     3.2545   0.8218   1.9021   H         1 1      0.0000
    35 OH       1.1806   1.4214   1.3169   O.3       1 1      0.0000
    36 OH1      0.8095   1.4191   2.2336   H         1 1      0.0000
    37 H22      1.5239  -0.6194   1.3396   H         1 1      0.0000
    38 C16      5.1200   1.8682   1.9216   C.3       1 1      0.0000
    39 H16C     4.6858   2.8504   1.7465   H         1 1      0.0000
    40 H16A     5.2690   1.7497   2.9929   H         1 1      0.0000
    41 H16B     6.0943   1.8372   1.4384   H         1 1      0.0000
@<TRIPOS>BOND
     1     1     2   ar
     2     1     6   ar
     3     1    29    1
     4     2     3   ar
     5     2     7    1
     6     3     4   ar
     7     3    30    1
     8     4     5   ar
     9     4     8    1
    10     5     6   ar
    11     5     9    1
    12     6    10    1
    13     8    11    1
    14     8    12    1
    15     8    28    1
    16    11    13    1
    17    11    26    1
    18    11    27    1
    19    13    14    1
    20    14    15    1
    21    14    16    1
    22    14    31    1
    23    16    17    1
    24    16    20    2
    25    17    18    1
    26    17    19    1
    27    17    32    1
    28    20    21    1
    29    20    22    1
    30    22    23    1
    31    22    24    1
    32    22    25    1
    33    32    33    1
    34    32    34    1
    35    13    35    1
    36    35    36    1
    37    13    37    1
    38    32    38    1
    39    38    39    1
    40    38    40    1
    41    38    41    1
@<TRIPOS>SUBSTRUCTURE
     1 1           1 GROUP             0 ****  ****    0  
@<TRIPOS>MOLECULE
Molecule Name_00001_00240
    41    41     1     0     0
SMALL
NO_CHARGES
****
Generated from the CSD

@<TRIPOS>ATOM
     1 C5      -4.2053  -1.5236   0.3345   C.ar      1 1      0.0000
     2 C4      -3.2001  -1.2331   1.2314   C.ar      1 1      0.0000
     3 C3      -2.4308  -0.0930   1.0689   C.ar      1 1      0.0000
     4 C8      -2.6570   0.7712   0.0086   C.ar      1 1      0.0000
     5 C7      -3.6707   0.4658  -0.8866   C.ar      1 1      0.0000
     6 C6      -4.4405  -0.6740  -0.7249   C.ar      1 1      0.0000
     7 H4      -3.0109  -1.8991   2.0668   H         1 1      0.0000
     8 C9      -1.8162   2.0121  -0.1701   C.3       1 1      0.0000
     9 H7      -3.8632   1.1281  -1.7242   H         1 1      0.0000
    10 H6      -5.2305  -0.8987  -1.4338   H         1 1      0.0000
    11 C10     -0.5374   1.7609  -0.9668   C.3       1 1      0.0000
    12 H9A     -2.4129   2.7755  -0.6843   H         1 1      0.0000
    13 C11      0.5105   0.9121  -0.2651   C.3       1 1      0.0000
    14 C12      1.7432   0.6957  -1.1360   C.3       1 1      0.0000
    15 H12A     2.2290   1.6626  -1.3162   H         1 1      0.0000
    16 C13      2.7357  -0.2418  -0.5182   C.2       1 1      0.0000
    17 C14      4.0092   0.3481   0.0091   C.3       1 1      0.0000
    18 H14B     4.3463   1.1317  -0.6806   H         1 1      0.0000
    19 H14A     4.7840  -0.4280   0.0325   H         1 1      0.0000
    20 N        2.4811  -1.5321  -0.4305   N.pl3     1 1      0.0000
    21 HN       1.5540  -1.8335  -0.7302   H         1 1      0.0000
    22 C        3.3317  -2.5474   0.1732   C.3       1 1      0.0000
    23 H1A      2.7316  -3.3162   0.6555   H         1 1      0.0000
    24 H1C      3.9540  -3.0263  -0.5799   H         1 1      0.0000
    25 H1B      3.9859  -2.1079   0.9231   H         1 1      0.0000
    26 H10A    -0.8086   1.2666  -1.9078   H         1 1      0.0000
    27 H10B    -0.0880   2.7304  -1.2148   H         1 1      0.0000
    28 H9B     -1.5493   2.4067   0.8181   H         1 1      0.0000
    29 H5      -4.8083  -2.4165   0.4617   H         1 1      0.0000
    30 H3      -1.6414   0.1266   1.7801   H         1 1      0.0000
    31 H12B     1.4291   0.2940  -2.1073   H         1 1      0.0000
    32 C15      3.8683   0.9465   1.3964   C.3       1 1      0.0000
    33 H15A     3.4875   0.1795   2.0821   H         1 1      0.0000
    34 H15C     3.1337   1.7606   1.3643   H         1 1      0.0000
    35 OH       0.9016   1.5634   0.9468   O.3       1 1      0.0000
    36 OH1      0.1214   1.6343   1.5504   H         1 1      0.0000
    37 H22      0.0711  -0.0672  -0.0201   H         1 1      0.0000
    38 C16      5.1778   1.4808   1.9287   C.3       1 1      0.0000
    39 H16C     5.5690   2.2605   1.2785   H         1 1      0.0000
    40 H16A     5.0466   1.9028   2.9229   H         1 1      0.0000
    41 H16B     5.9205   0.6882   1.9922   H         1 1      0.0000
@<TRIPOS>BOND
     1     1     2   ar
     2     1     6   ar
     3     1    29    1
     4     2     3   ar
     5     2     7    1
     6     3     4   ar
     7     3    30    1
     8     4     5   ar
     9     4     8    1
    10     5     6   ar
    11     5     9    1
    12     6    10    1
    13     8    11    1
    14     8    12    1
    15     8    28    1
    16    11    13    1
    17    11    26    1
    18    11    27    1
    19    13    14    1
    20    14    15    1
    21    14    16    1
    22    14    31    1
    23    16    17    1
    24    16    20    2
    25    17    18    1
    26    17    19    1
    27    17    32    1
    28    20    21    1
    29    20    22    1
    30    22    23    1
    31    22    24    1
    32    22    25    1
    33    32    33    1
    34    32    34    1
    35    13    35    1
    36    35    36    1
    37    13    37    1
    38    32    38    1
    39    38    39    1
    40    38    40    1
    41    38    41    1
@<TRIPOS>SUBSTRUCTURE
     1 1           1 GROUP             0 ****  ****    0  
@<TRIPOS>MOLECULE
Molecule Name_00001_00241
    41    41     1     0     0
SMALL
NO_CHARGES
****
Generated from the CSD

@<TRIPOS>ATOM
     1 C5      -3.9592   1.9912  -0.0227   C.ar      1 1      0.0000
     2 C4      -2.7330   1.8952   0.5990   C.ar      1 1      0.0000
     3 C3      -2.0777   0.6767   0.6604   C.ar      1 1      0.0000
     4 C8      -2.6392  -0.4607   0.1008   C.ar      1 1      0.0000
     5 C7      -3.8737  -0.3497  -0.5203   C.ar      1 1      0.0000
     6 C6      -4.5298   0.8684  -0.5823   C.ar      1 1      0.0000
     7 H4      -2.2799   2.7763   1.0413   H         1 1      0.0000
     8 C9      -1.9261  -1.7894   0.1709   C.3       1 1      0.0000
     9 H7      -4.3315  -1.2280  -0.9633   H         1 1      0.0000
    10 H6      -5.4952   0.9389  -1.0725   H         1 1      0.0000
    11 C10     -0.5628  -1.7035   0.8542   C.3       1 1      0.0000
    12 H9A     -2.5552  -2.5026   0.7177   H         1 1      0.0000
    13 C11      0.5263  -1.0126   0.0494   C.3       1 1      0.0000
    14 C12      1.8446  -0.9502   0.8129   C.3       1 1      0.0000
    15 H12A     2.2061  -1.9711   0.9881   H         1 1      0.0000
    16 C13      2.9022  -0.1757   0.0869   C.2       1 1      0.0000
    17 C14      2.7675   1.3172   0.0554   C.3       1 1      0.0000
    18 H14B     1.7101   1.5724  -0.0870   H         1 1      0.0000
    19 H14A     3.3220   1.7117  -0.8048   H         1 1      0.0000
    20 N        3.9180  -0.7920  -0.4837   N.pl3     1 1      0.0000
    21 HN       3.9798  -1.7992  -0.3351   H         1 1      0.0000
    22 C        5.0299  -0.1688  -1.1867   C.3       1 1      0.0000
    23 H1A      5.9495  -0.7278  -1.0262   H         1 1      0.0000
    24 H1C      4.8376  -0.1332  -2.2570   H         1 1      0.0000
    25 H1B      5.1866   0.8493  -0.8369   H         1 1      0.0000
    26 H10A    -0.6853  -1.1656   1.8024   H         1 1      0.0000
    27 H10B    -0.2276  -2.7217   1.0872   H         1 1      0.0000
    28 H9B     -1.7915  -2.1753  -0.8471   H         1 1      0.0000
    29 H5      -4.4727   2.9457  -0.0713   H         1 1      0.0000
    30 H3      -1.1130   0.6114   1.1526   H         1 1      0.0000
    31 H12B     1.6699  -0.4856   1.7912   H         1 1      0.0000
    32 C15      3.2674   1.9952   1.3176   C.3       1 1      0.0000
    33 H15A     4.3243   1.7425   1.4672   H         1 1      0.0000
    34 H15C     2.7067   1.6112   2.1786   H         1 1      0.0000
    35 OH       0.7263  -1.7279  -1.1730   O.3       1 1      0.0000
    36 OH1     -0.0850  -1.6566  -1.7340   H         1 1      0.0000
    37 H22      0.2012   0.0129  -0.1844   H         1 1      0.0000
    38 C16      3.1206   3.4982   1.2605   C.3       1 1      0.0000
    39 H16C     2.0772   3.7793   1.1341   H         1 1      0.0000
    40 H16A     3.4865   3.9565   2.1769   H         1 1      0.0000
    41 H16B     3.6858   3.9095   0.4267   H         1 1      0.0000
@<TRIPOS>BOND
     1     1     2   ar
     2     1     6   ar
     3     1    29    1
     4     2     3   ar
     5     2     7    1
     6     3     4   ar
     7     3    30    1
     8     4     5   ar
     9     4     8    1
    10     5     6   ar
    11     5     9    1
    12     6    10    1
    13     8    11    1
    14     8    12    1
    15     8    28    1
    16    11    13    1
    17    11    26    1
    18    11    27    1
    19    13    14    1
    20    14    15    1
    21    14    16    1
    22    14    31    1
    23    16    17    1
    24    16    20    2
    25    17    18    1
    26    17    19    1
    27    17    32    1
    28    20    21    1
    29    20    22    1
    30    22    23    1
    31    22    24    1
    32    22    25    1
    33    32    33    1
    34    32    34    1
    35    13    35    1
    36    35    36    1
    37    13    37    1
    38    32    38    1
    39    38    39    1
    40    38    40    1
    41    38    41    1
@<TRIPOS>SUBSTRUCTURE
     1 1           1 GROUP             0 ****  ****    0  
@<TRIPOS>MOLECULE
Molecule Name_00001_00242
    41    41     1     0     0
SMALL
NO_CHARGES
****
Generated from the CSD

@<TRIPOS>ATOM
     1 C5      -3.8257   1.8607   0.9377   C.ar      1 1      0.0000
     2 C4      -2.6877   1.3298   1.5057   C.ar      1 1      0.0000
     3 C3      -2.0392   0.2664   0.9002   C.ar      1 1      0.0000
     4 C8      -2.5193  -0.2790  -0.2805   C.ar      1 1      0.0000
     5 C7      -3.6656   0.2642  -0.8400   C.ar      1 1      0.0000
     6 C6      -4.3148   1.3277  -0.2353   C.ar      1 1      0.0000
     7 H4      -2.2991   1.7458   2.4293   H         1 1      0.0000
     8 C9      -1.8139  -1.4403  -0.9385   C.3       1 1      0.0000
     9 H7      -4.0588  -0.1488  -1.7630   H         1 1      0.0000
    10 H6      -5.2105   1.7420  -0.6861   H         1 1      0.0000
    11 C10     -0.5488  -1.8710  -0.1989   C.3       1 1      0.0000
    12 H9A     -2.5036  -2.2917  -0.9918   H         1 1      0.0000
    13 C11      0.6300  -0.9182  -0.3163   C.3       1 1      0.0000
    14 C12      1.8404  -1.4118   0.4686   C.3       1 1      0.0000
    15 H12A     2.1497  -2.3876   0.0743   H         1 1      0.0000
    16 C13      3.0023  -0.4678   0.4022   C.2       1 1      0.0000
    17 C14      2.9303   0.7776   1.2338   C.3       1 1      0.0000
    18 H14B     3.9480   1.0663   1.5243   H         1 1      0.0000
    19 H14A     2.3711   0.5659   2.1533   H         1 1      0.0000
    20 N        4.0509  -0.7403  -0.3485   N.pl3     1 1      0.0000
    21 HN       4.0563  -1.6506  -0.8082   H         1 1      0.0000
    22 C        5.2583   0.0622  -0.4804   C.3       1 1      0.0000
    23 H1A      6.0889  -0.5459  -0.8324   H         1 1      0.0000
    24 H1C      5.1068   0.8724  -1.1906   H         1 1      0.0000
    25 H1B      5.5390   0.4985   0.4758   H         1 1      0.0000
    26 H10A    -0.7934  -1.9883   0.8640   H         1 1      0.0000
    27 H10B    -0.2406  -2.8515  -0.5823   H         1 1      0.0000
    28 H9B     -1.5492  -1.1604  -1.9656   H         1 1      0.0000
    29 H5      -4.3339   2.6940   1.4116   H         1 1      0.0000
    30 H3      -1.1444  -0.1450   1.3556   H         1 1      0.0000
    31 H12B     1.5535  -1.5517   1.5182   H         1 1      0.0000
    32 C15      2.2776   1.9451   0.5172   C.3       1 1      0.0000
    33 H15A     1.2534   1.6687   0.2378   H         1 1      0.0000
    34 H15C     2.8309   2.1553  -0.4064   H         1 1      0.0000
    35 OH       0.9872  -0.7875  -1.6951   O.3       1 1      0.0000
    36 OH1      0.2633  -0.3209  -2.1812   H         1 1      0.0000
    37 H22      0.3318   0.0681   0.0718   H         1 1      0.0000
    38 C16      2.2393   3.1938   1.3674   C.3       1 1      0.0000
    39 H16C     3.2452   3.5045   1.6420   H         1 1      0.0000
    40 H16A     1.7668   4.0127   0.8290   H         1 1      0.0000
    41 H16B     1.6766   3.0204   2.2823   H         1 1      0.0000
@<TRIPOS>BOND
     1     1     2   ar
     2     1     6   ar
     3     1    29    1
     4     2     3   ar
     5     2     7    1
     6     3     4   ar
     7     3    30    1
     8     4     5   ar
     9     4     8    1
    10     5     6   ar
    11     5     9    1
    12     6    10    1
    13     8    11    1
    14     8    12    1
    15     8    28    1
    16    11    13    1
    17    11    26    1
    18    11    27    1
    19    13    14    1
    20    14    15    1
    21    14    16    1
    22    14    31    1
    23    16    17    1
    24    16    20    2
    25    17    18    1
    26    17    19    1
    27    17    32    1
    28    20    21    1
    29    20    22    1
    30    22    23    1
    31    22    24    1
    32    22    25    1
    33    32    33    1
    34    32    34    1
    35    13    35    1
    36    35    36    1
    37    13    37    1
    38    32    38    1
    39    38    39    1
    40    38    40    1
    41    38    41    1
@<TRIPOS>SUBSTRUCTURE
     1 1           1 GROUP             0 ****  ****    0  
@<TRIPOS>MOLECULE
Molecule Name_00001_00243
    41    41     1     0     0
SMALL
NO_CHARGES
****
Generated from the CSD

@<TRIPOS>ATOM
     1 C5      -4.3731  -1.4919  -0.1206   C.ar      1 1      0.0000
     2 C4      -3.1946  -1.3530  -0.8216   C.ar      1 1      0.0000
     3 C3      -2.3962  -0.2384  -0.6261   C.ar      1 1      0.0000
     4 C8      -2.7650   0.7506   0.2728   C.ar      1 1      0.0000
     5 C7      -3.9536   0.5983   0.9701   C.ar      1 1      0.0000
     6 C6      -4.7527  -0.5159   0.7753   C.ar      1 1      0.0000
     7 H4      -2.8917  -2.1186  -1.5283   H         1 1      0.0000
     8 C9      -1.8960   1.9669   0.4832   C.3       1 1      0.0000
     9 H7      -4.2614   1.3615   1.6772   H         1 1      0.0000
    10 H6      -5.6797  -0.6206   1.3293   H         1 1      0.0000
    11 C10     -0.6097   1.9351  -0.3399   C.3       1 1      0.0000
    12 H9A     -2.4684   2.8638   0.2164   H         1 1      0.0000
    13 C11      0.4399   0.9412   0.1309   C.3       1 1      0.0000
    14 C12      1.6786   0.9586  -0.7580   C.3       1 1      0.0000
    15 H12A     2.1812   1.9281  -0.6535   H         1 1      0.0000
    16 C13      2.6496  -0.1332  -0.4255   C.2       1 1      0.0000
    17 C14      3.5070   0.0501   0.7907   C.3       1 1      0.0000
    18 H14B     3.8236  -0.9367   1.1503   H         1 1      0.0000
    19 H14A     2.9117   0.5166   1.5851   H         1 1      0.0000
    20 N        2.7265  -1.2178  -1.1706   N.pl3     1 1      0.0000
    21 HN       2.0439  -1.3009  -1.9237   H         1 1      0.0000
    22 C        3.5919  -2.3668  -0.9474   C.3       1 1      0.0000
    23 H1A      3.2239  -3.2373  -1.4865   H         1 1      0.0000
    24 H1C      4.6037  -2.1594  -1.2894   H         1 1      0.0000
    25 H1B      3.6369  -2.6173   0.1103   H         1 1      0.0000
    26 H10A    -0.8703   1.6962  -1.3784   H         1 1      0.0000
    27 H10B    -0.1662   2.9384  -0.3278   H         1 1      0.0000
    28 H9B     -1.6375   2.0401   1.5468   H         1 1      0.0000
    29 H5      -4.9987  -2.3651  -0.2733   H         1 1      0.0000
    30 H3      -1.4706  -0.1381  -1.1832   H         1 1      0.0000
    31 H12B     1.3690   0.8545  -1.8053   H         1 1      0.0000
    32 C15      4.7410   0.8962   0.5374   C.3       1 1      0.0000
    33 H15A     4.4315   1.8845   0.1754   H         1 1      0.0000
    34 H15C     5.3445   0.4261  -0.2489   H         1 1      0.0000
    35 OH       0.8203   1.2658   1.4709   O.3       1 1      0.0000
    36 OH1      0.0515   1.1228   2.0764   H         1 1      0.0000
    37 H22      0.0054  -0.0703   0.1167   H         1 1      0.0000
    38 C16      5.5874   1.0657   1.7778   C.3       1 1      0.0000
    39 H16C     5.9274   0.1005   2.1474   H         1 1      0.0000
    40 H16A     6.4633   1.6755   1.5666   H         1 1      0.0000
    41 H16B     5.0194   1.5507   2.5689   H         1 1      0.0000
@<TRIPOS>BOND
     1     1     2   ar
     2     1     6   ar
     3     1    29    1
     4     2     3   ar
     5     2     7    1
     6     3     4   ar
     7     3    30    1
     8     4     5   ar
     9     4     8    1
    10     5     6   ar
    11     5     9    1
    12     6    10    1
    13     8    11    1
    14     8    12    1
    15     8    28    1
    16    11    13    1
    17    11    26    1
    18    11    27    1
    19    13    14    1
    20    14    15    1
    21    14    16    1
    22    14    31    1
    23    16    17    1
    24    16    20    2
    25    17    18    1
    26    17    19    1
    27    17    32    1
    28    20    21    1
    29    20    22    1
    30    22    23    1
    31    22    24    1
    32    22    25    1
    33    32    33    1
    34    32    34    1
    35    13    35    1
    36    35    36    1
    37    13    37    1
    38    32    38    1
    39    38    39    1
    40    38    40    1
    41    38    41    1
@<TRIPOS>SUBSTRUCTURE
     1 1           1 GROUP             0 ****  ****    0  
@<TRIPOS>MOLECULE
Molecule Name_00001_00244
    41    41     1     0     0
SMALL
NO_CHARGES
****
Generated from the CSD

@<TRIPOS>ATOM
     1 C5      -4.4374   1.5356  -0.5296   C.ar      1 1      0.0000
     2 C4      -4.7075   0.1842  -0.5461   C.ar      1 1      0.0000
     3 C3      -3.7068  -0.7287  -0.2579   C.ar      1 1      0.0000
     4 C8      -2.4242  -0.3026   0.0512   C.ar      1 1      0.0000
     5 C7      -2.1665   1.0596   0.0628   C.ar      1 1      0.0000
     6 C6      -3.1666   1.9733  -0.2253   C.ar      1 1      0.0000
     7 H4      -5.7064  -0.1652  -0.7855   H         1 1      0.0000
     8 C9      -1.3329  -1.2981   0.3621   C.3       1 1      0.0000
     9 H7      -1.1691   1.4142   0.3006   H         1 1      0.0000
    10 H6      -2.9490   3.0362  -0.2114   H         1 1      0.0000
    11 C10      0.0083  -0.6392   0.6782   C.3       1 1      0.0000
    12 H9A     -1.6416  -1.9084   1.2198   H         1 1      0.0000
    13 C11      1.1445  -1.5969   0.9992   C.3       1 1      0.0000
    14 C12      2.4477  -0.8582   1.2832   C.3       1 1      0.0000
    15 H12A     3.1943  -1.5751   1.6465   H         1 1      0.0000
    16 C13      2.9929  -0.1542   0.0779   C.2       1 1      0.0000
    17 C14      3.7418   1.1249   0.3036   C.3       1 1      0.0000
    18 H14B     4.4257   1.2859  -0.5388   H         1 1      0.0000
    19 H14A     4.3506   1.0316   1.2111   H         1 1      0.0000
    20 N        2.8302  -0.6582  -1.1291   N.pl3     1 1      0.0000
    21 HN       2.3895  -1.5765  -1.1823   H         1 1      0.0000
    22 C        3.3336  -0.1050  -2.3779   C.3       1 1      0.0000
    23 H1A      3.2206  -0.8204  -3.1898   H         1 1      0.0000
    24 H1C      2.7910   0.7993  -2.6452   H         1 1      0.0000
    25 H1B      4.3886   0.1463  -2.2920   H         1 1      0.0000
    26 H10A     0.3045  -0.0286  -0.1837   H         1 1      0.0000
    27 H10B    -0.1295   0.0333   1.5339   H         1 1      0.0000
    28 H9B     -1.2075  -1.9688  -0.4969   H         1 1      0.0000
    29 H5      -5.2212   2.2511  -0.7552   H         1 1      0.0000
    30 H3      -3.9293  -1.7905  -0.2741   H         1 1      0.0000
    31 H12B     2.2762  -0.1230   2.0790   H         1 1      0.0000
    32 C15      2.8390   2.3373   0.4378   C.3       1 1      0.0000
    33 H15A     2.1507   2.1821   1.2777   H         1 1      0.0000
    34 H15C     2.2369   2.4402  -0.4734   H         1 1      0.0000
    35 OH       0.7876  -2.3749   2.1451   O.3       1 1      0.0000
    36 OH1     -0.0420  -2.8791   1.9568   H         1 1      0.0000
    37 H22      1.2964  -2.2706   0.1417   H         1 1      0.0000
    38 C16      3.6176   3.6125   0.6644   C.3       1 1      0.0000
    39 H16C     4.2945   3.8038  -0.1657   H         1 1      0.0000
    40 H16A     2.9458   4.4633   0.7568   H         1 1      0.0000
    41 H16B     4.2086   3.5469   1.5755   H         1 1      0.0000
@<TRIPOS>BOND
     1     1     2   ar
     2     1     6   ar
     3     1    29    1
     4     2     3   ar
     5     2     7    1
     6     3     4   ar
     7     3    30    1
     8     4     5   ar
     9     4     8    1
    10     5     6   ar
    11     5     9    1
    12     6    10    1
    13     8    11    1
    14     8    12    1
    15     8    28    1
    16    11    13    1
    17    11    26    1
    18    11    27    1
    19    13    14    1
    20    14    15    1
    21    14    16    1
    22    14    31    1
    23    16    17    1
    24    16    20    2
    25    17    18    1
    26    17    19    1
    27    17    32    1
    28    20    21    1
    29    20    22    1
    30    22    23    1
    31    22    24    1
    32    22    25    1
    33    32    33    1
    34    32    34    1
    35    13    35    1
    36    35    36    1
    37    13    37    1
    38    32    38    1
    39    38    39    1
    40    38    40    1
    41    38    41    1
@<TRIPOS>SUBSTRUCTURE
     1 1           1 GROUP             0 ****  ****    0  
@<TRIPOS>MOLECULE
Molecule Name_00001_00245
    41    41     1     0     0
SMALL
NO_CHARGES
****
Generated from the CSD

@<TRIPOS>ATOM
     1 C5      -5.5071   0.6941   0.1315   C.ar      1 1      0.0000
     2 C4      -4.9916  -0.3199  -0.6467   C.ar      1 1      0.0000
     3 C3      -3.6492  -0.6491  -0.5603   C.ar      1 1      0.0000
     4 C8      -2.8056   0.0301   0.3053   C.ar      1 1      0.0000
     5 C7      -3.3375   1.0485   1.0811   C.ar      1 1      0.0000
     6 C6      -4.6798   1.3786   0.9954   C.ar      1 1      0.0000
     7 H4      -5.6389  -0.8613  -1.3286   H         1 1      0.0000
     8 C9      -1.3418  -0.3270   0.3968   C.3       1 1      0.0000
     9 H7      -2.6943   1.5937   1.7639   H         1 1      0.0000
    10 H6      -5.0810   2.1778   1.6098   H         1 1      0.0000
    11 C10     -0.6162  -0.2335  -0.9440   C.3       1 1      0.0000
    12 H9A     -0.8553   0.3461   1.1136   H         1 1      0.0000
    13 C11      0.8629  -0.5829  -0.9095   C.3       1 1      0.0000
    14 C12      1.6532   0.3759  -0.0259   C.3       1 1      0.0000
    15 H12A     1.3265   0.2565   1.0145   H         1 1      0.0000
    16 C13      3.1330   0.1523  -0.1016   C.2       1 1      0.0000
    17 C14      4.0235   1.3420   0.0970   C.3       1 1      0.0000
    18 H14B     3.5758   2.2056  -0.4101   H         1 1      0.0000
    19 H14A     4.9950   1.1485  -0.3740   H         1 1      0.0000
    20 N        3.6233  -1.0520  -0.3174   N.pl3     1 1      0.0000
    21 HN       2.9501  -1.8175  -0.3493   H         1 1      0.0000
    22 C        5.0303  -1.4201  -0.3792   C.3       1 1      0.0000
    23 H1A      5.1869  -2.4156   0.0311   H         1 1      0.0000
    24 H1C      5.3843  -1.4183  -1.4080   H         1 1      0.0000
    25 H1B      5.6386  -0.7197   0.1892   H         1 1      0.0000
    26 H10A    -1.1136  -0.9065  -1.6533   H         1 1      0.0000
    27 H10B    -0.7210   0.7904  -1.3236   H         1 1      0.0000
    28 H9B     -1.2482  -1.3496   0.7828   H         1 1      0.0000
    29 H5      -6.5588   0.9522   0.0642   H         1 1      0.0000
    30 H3      -3.2528  -1.4486  -1.1775   H         1 1      0.0000
    31 H12B     1.4318   1.4067  -0.3290   H         1 1      0.0000
    32 C15      4.2444   1.6937   1.5566   C.3       1 1      0.0000
    33 H15A     4.6904   0.8333   2.0705   H         1 1      0.0000
    34 H15C     3.2753   1.8991   2.0279   H         1 1      0.0000
    35 OH       1.0150  -1.9143  -0.4093   O.3       1 1      0.0000
    36 OH1      0.5240  -2.5444  -0.9922   H         1 1      0.0000
    37 H22      1.2646  -0.5368  -1.9336   H         1 1      0.0000
    38 C16      5.1445   2.8952   1.7294   C.3       1 1      0.0000
    39 H16C     4.7156   3.7710   1.2472   H         1 1      0.0000
    40 H16A     5.2848   3.1235   2.7839   H         1 1      0.0000
    41 H16B     6.1224   2.7109   1.2895   H         1 1      0.0000
@<TRIPOS>BOND
     1     1     2   ar
     2     1     6   ar
     3     1    29    1
     4     2     3   ar
     5     2     7    1
     6     3     4   ar
     7     3    30    1
     8     4     5   ar
     9     4     8    1
    10     5     6   ar
    11     5     9    1
    12     6    10    1
    13     8    11    1
    14     8    12    1
    15     8    28    1
    16    11    13    1
    17    11    26    1
    18    11    27    1
    19    13    14    1
    20    14    15    1
    21    14    16    1
    22    14    31    1
    23    16    17    1
    24    16    20    2
    25    17    18    1
    26    17    19    1
    27    17    32    1
    28    20    21    1
    29    20    22    1
    30    22    23    1
    31    22    24    1
    32    22    25    1
    33    32    33    1
    34    32    34    1
    35    13    35    1
    36    35    36    1
    37    13    37    1
    38    32    38    1
    39    38    39    1
    40    38    40    1
    41    38    41    1
@<TRIPOS>SUBSTRUCTURE
     1 1           1 GROUP             0 ****  ****    0  
@<TRIPOS>MOLECULE
Molecule Name_00001_00246
    41    41     1     0     0
SMALL
NO_CHARGES
****
Generated from the CSD

@<TRIPOS>ATOM
     1 C5      -5.5048   0.7357   0.1802   C.ar      1 1      0.0000
     2 C4      -4.9296   0.1673  -0.9357   C.ar      1 1      0.0000
     3 C3      -3.6051  -0.2362  -0.9065   C.ar      1 1      0.0000
     4 C8      -2.8394  -0.0775   0.2383   C.ar      1 1      0.0000
     5 C7      -3.4306   0.4968   1.3530   C.ar      1 1      0.0000
     6 C6      -4.7551   0.9007   1.3248   C.ar      1 1      0.0000
     7 H4      -5.5157   0.0357  -1.8393   H         1 1      0.0000
     8 C9      -1.3948  -0.5145   0.2687   C.3       1 1      0.0000
     9 H7      -2.8486   0.6316   2.2587   H         1 1      0.0000
    10 H6      -5.2034   1.3480   2.2058   H         1 1      0.0000
    11 C10     -0.5450   0.1462  -0.8149   C.3       1 1      0.0000
    12 H9A     -0.9706  -0.2737   1.2513   H         1 1      0.0000
    13 C11      0.9203  -0.2587  -0.8302   C.3       1 1      0.0000
    14 C12      1.6344   0.1424   0.4558   C.3       1 1      0.0000
    15 H12A     1.2097  -0.4244   1.2935   H         1 1      0.0000
    16 C13      3.1122  -0.1002   0.4016   C.2       1 1      0.0000
    17 C14      3.9932   0.8152   1.1976   C.3       1 1      0.0000
    18 H14B     4.9320   0.2936   1.4215   H         1 1      0.0000
    19 H14A     3.5060   1.0446   2.1532   H         1 1      0.0000
    20 N        3.6071  -1.0946  -0.3080   N.pl3     1 1      0.0000
    21 HN       2.9314  -1.7223  -0.7434   H         1 1      0.0000
    22 C        5.0094  -1.4679  -0.4225   C.3       1 1      0.0000
    23 H1A      5.1095  -2.4683  -0.8383   H         1 1      0.0000
    24 H1C      5.5404  -0.7761  -1.0731   H         1 1      0.0000
    25 H1B      5.4937  -1.4556   0.5516   H         1 1      0.0000
    26 H10A    -0.9807  -0.0975  -1.7917   H         1 1      0.0000
    27 H10B    -0.6019   1.2339  -0.6843   H         1 1      0.0000
    28 H9B     -1.3495  -1.6034   0.1434   H         1 1      0.0000
    29 H5      -6.5425   1.0518   0.1578   H         1 1      0.0000
    30 H3      -3.1612  -0.6821  -1.7905   H         1 1      0.0000
    31 H12B     1.4542   1.2073   0.6480   H         1 1      0.0000
    32 C15      4.3154   2.1148   0.4836   C.3       1 1      0.0000
    33 H15A     3.3804   2.6409   0.2548   H         1 1      0.0000
    34 H15C     4.8133   1.8891  -0.4675   H         1 1      0.0000
    35 OH       1.0095  -1.6769  -0.9928   O.3       1 1      0.0000
    36 OH1      0.5687  -1.9410  -1.8378   H         1 1      0.0000
    37 H22      1.4173   0.2317  -1.6815   H         1 1      0.0000
    38 C16      5.2040   3.0188   1.3063   C.3       1 1      0.0000
    39 H16C     6.1498   2.5300   1.5303   H         1 1      0.0000
    40 H16A     5.4177   3.9412   0.7704   H         1 1      0.0000
    41 H16B     4.7247   3.2774   2.2482   H         1 1      0.0000
@<TRIPOS>BOND
     1     1     2   ar
     2     1     6   ar
     3     1    29    1
     4     2     3   ar
     5     2     7    1
     6     3     4   ar
     7     3    30    1
     8     4     5   ar
     9     4     8    1
    10     5     6   ar
    11     5     9    1
    12     6    10    1
    13     8    11    1
    14     8    12    1
    15     8    28    1
    16    11    13    1
    17    11    26    1
    18    11    27    1
    19    13    14    1
    20    14    15    1
    21    14    16    1
    22    14    31    1
    23    16    17    1
    24    16    20    2
    25    17    18    1
    26    17    19    1
    27    17    32    1
    28    20    21    1
    29    20    22    1
    30    22    23    1
    31    22    24    1
    32    22    25    1
    33    32    33    1
    34    32    34    1
    35    13    35    1
    36    35    36    1
    37    13    37    1
    38    32    38    1
    39    38    39    1
    40    38    40    1
    41    38    41    1
@<TRIPOS>SUBSTRUCTURE
     1 1           1 GROUP             0 ****  ****    0  
@<TRIPOS>MOLECULE
Molecule Name_00001_00247
    41    41     1     0     0
SMALL
NO_CHARGES
****
Generated from the CSD

@<TRIPOS>ATOM
     1 C5      -4.2891   0.9248  -1.0421   C.ar      1 1      0.0000
     2 C4      -4.3630   0.0235  -0.0021   C.ar      1 1      0.0000
     3 C3      -3.2378  -0.2598   0.7541   C.ar      1 1      0.0000
     4 C8      -2.0254   0.3547   0.4809   C.ar      1 1      0.0000
     5 C7      -1.9655   1.2583  -0.5688   C.ar      1 1      0.0000
     6 C6      -3.0900   1.5422  -1.3256   C.ar      1 1      0.0000
     7 H4      -5.3047  -0.4653   0.2247   H         1 1      0.0000
     8 C9      -0.7985   0.0432   1.3034   C.3       1 1      0.0000
     9 H7      -1.0259   1.7490  -0.8004   H         1 1      0.0000
    10 H6      -3.0269   2.2523  -2.1436   H         1 1      0.0000
    11 C10     -0.0220  -1.1671   0.7882   C.3       1 1      0.0000
    12 H9A     -0.1372   0.9185   1.3018   H         1 1      0.0000
    13 C11      1.2247  -1.5260   1.5806   C.3       1 1      0.0000
    14 C12      2.2642  -0.4112   1.5409   C.3       1 1      0.0000
    15 H12A     3.0766  -0.6536   2.2371   H         1 1      0.0000
    16 C13      2.8398  -0.1997   0.1736   C.2       1 1      0.0000
    17 C14      3.2378   1.1963  -0.2012   C.3       1 1      0.0000
    18 H14B     4.0039   1.1456  -0.9848   H         1 1      0.0000
    19 H14A     3.6869   1.6898   0.6693   H         1 1      0.0000
    20 N        3.0024  -1.2126  -0.6541   N.pl3     1 1      0.0000
    21 HN       2.7910  -2.1395  -0.2848   H         1 1      0.0000
    22 C        3.5786  -1.1605  -1.9899   C.3       1 1      0.0000
    23 H1A      3.7804  -2.1627  -2.3621   H         1 1      0.0000
    24 H1C      2.8983  -0.6718  -2.6842   H         1 1      0.0000
    25 H1B      4.5144  -0.6056  -1.9859   H         1 1      0.0000
    26 H10A    -0.6938  -2.0343   0.7899   H         1 1      0.0000
    27 H10B     0.2723  -0.9730  -0.2506   H         1 1      0.0000
    28 H9B     -1.1030  -0.1432   2.3406   H         1 1      0.0000
    29 H5      -5.1704   1.1472  -1.6346   H         1 1      0.0000
    30 H3      -3.3061  -0.9713   1.5703   H         1 1      0.0000
    31 H12B     1.8004   0.5228   1.8815   H         1 1      0.0000
    32 C15      2.0806   2.0396  -0.7038   C.3       1 1      0.0000
    33 H15A     1.3095   2.0928   0.0746   H         1 1      0.0000
    34 H15C     1.6365   1.5544  -1.5818   H         1 1      0.0000
    35 OH       0.8565  -1.7750   2.9401   O.3       1 1      0.0000
    36 OH1      0.1999  -2.5137   2.9745   H         1 1      0.0000
    37 H22      1.6668  -2.4405   1.1558   H         1 1      0.0000
    38 C16      2.5079   3.4409  -1.0746   C.3       1 1      0.0000
    39 H16C     3.2584   3.4196  -1.8620   H         1 1      0.0000
    40 H16A     1.6593   4.0213  -1.4307   H         1 1      0.0000
    41 H16B     2.9331   3.9546  -0.2149   H         1 1      0.0000
@<TRIPOS>BOND
     1     1     2   ar
     2     1     6   ar
     3     1    29    1
     4     2     3   ar
     5     2     7    1
     6     3     4   ar
     7     3    30    1
     8     4     5   ar
     9     4     8    1
    10     5     6   ar
    11     5     9    1
    12     6    10    1
    13     8    11    1
    14     8    12    1
    15     8    28    1
    16    11    13    1
    17    11    26    1
    18    11    27    1
    19    13    14    1
    20    14    15    1
    21    14    16    1
    22    14    31    1
    23    16    17    1
    24    16    20    2
    25    17    18    1
    26    17    19    1
    27    17    32    1
    28    20    21    1
    29    20    22    1
    30    22    23    1
    31    22    24    1
    32    22    25    1
    33    32    33    1
    34    32    34    1
    35    13    35    1
    36    35    36    1
    37    13    37    1
    38    32    38    1
    39    38    39    1
    40    38    40    1
    41    38    41    1
@<TRIPOS>SUBSTRUCTURE
     1 1           1 GROUP             0 ****  ****    0  
@<TRIPOS>MOLECULE
Molecule Name_00001_00248
    41    41     1     0     0
SMALL
NO_CHARGES
****
Generated from the CSD

@<TRIPOS>ATOM
     1 C5      -4.0335   0.8110  -1.5688   C.ar      1 1      0.0000
     2 C4      -3.6527  -0.5134  -1.5845   C.ar      1 1      0.0000
     3 C3      -3.0003  -1.0626  -0.4932   C.ar      1 1      0.0000
     4 C8      -2.7211  -0.2954   0.6273   C.ar      1 1      0.0000
     5 C7      -3.1089   1.0357   0.6288   C.ar      1 1      0.0000
     6 C6      -3.7614   1.5858  -0.4619   C.ar      1 1      0.0000
     7 H4      -3.8644  -1.1272  -2.4537   H         1 1      0.0000
     8 C9      -2.0071  -0.8935   1.8152   C.3       1 1      0.0000
     9 H7      -2.8987   1.6541   1.4952   H         1 1      0.0000
    10 H6      -4.0589   2.6290  -0.4451   H         1 1      0.0000
    11 C10     -0.6525  -0.2437   2.0908   C.3       1 1      0.0000
    12 H9A     -2.6419  -0.7858   2.7034   H         1 1      0.0000
    13 C11      0.4246  -0.5195   1.0541   C.3       1 1      0.0000
    14 C12      1.4062   0.6407   0.9314   C.3       1 1      0.0000
    15 H12A     1.9391   0.7615   1.8827   H         1 1      0.0000
    16 C13      2.4064   0.4441  -0.1670   C.2       1 1      0.0000
    17 C14      3.4333   1.5177  -0.3679   C.3       1 1      0.0000
    18 H14B     2.9517   2.4946  -0.2374   H         1 1      0.0000
    19 H14A     3.8099   1.4691  -1.3970   H         1 1      0.0000
    20 N        2.3862  -0.6438  -0.9111   N.pl3     1 1      0.0000
    21 HN       1.7130  -1.3627  -0.6465   H         1 1      0.0000
    22 C        3.3123  -0.9823  -1.9820   C.3       1 1      0.0000
    23 H1A      3.4897  -2.0553  -2.0135   H         1 1      0.0000
    24 H1C      2.9137  -0.6765  -2.9470   H         1 1      0.0000
    25 H1B      4.2688  -0.4846  -1.8378   H         1 1      0.0000
    26 H10A    -0.7976   0.8416   2.1577   H         1 1      0.0000
    27 H10B    -0.2922  -0.5945   3.0658   H         1 1      0.0000
    28 H9B     -1.8592  -1.9661   1.6388   H         1 1      0.0000
    29 H5      -4.5449   1.2415  -2.4234   H         1 1      0.0000
    30 H3      -2.7040  -2.1061  -0.5156   H         1 1      0.0000
    31 H12B     0.8460   1.5649   0.7431   H         1 1      0.0000
    32 C15      4.6051   1.4193   0.5913   C.3       1 1      0.0000
    33 H15A     5.0905   0.4434   0.4674   H         1 1      0.0000
    34 H15C     4.2329   1.4792   1.6214   H         1 1      0.0000
    35 OH       1.1396  -1.7004   1.4287   O.3       1 1      0.0000
    36 OH1      0.5118  -2.4623   1.4866   H         1 1      0.0000
    37 H22     -0.0546  -0.6855   0.0769   H         1 1      0.0000
    38 C16      5.6251   2.5118   0.3681   C.3       1 1      0.0000
    39 H16C     5.1757   3.4930   0.5062   H         1 1      0.0000
    40 H16A     6.4522   2.4162   1.0685   H         1 1      0.0000
    41 H16B     6.0283   2.4627  -0.6412   H         1 1      0.0000
@<TRIPOS>BOND
     1     1     2   ar
     2     1     6   ar
     3     1    29    1
     4     2     3   ar
     5     2     7    1
     6     3     4   ar
     7     3    30    1
     8     4     5   ar
     9     4     8    1
    10     5     6   ar
    11     5     9    1
    12     6    10    1
    13     8    11    1
    14     8    12    1
    15     8    28    1
    16    11    13    1
    17    11    26    1
    18    11    27    1
    19    13    14    1
    20    14    15    1
    21    14    16    1
    22    14    31    1
    23    16    17    1
    24    16    20    2
    25    17    18    1
    26    17    19    1
    27    17    32    1
    28    20    21    1
    29    20    22    1
    30    22    23    1
    31    22    24    1
    32    22    25    1
    33    32    33    1
    34    32    34    1
    35    13    35    1
    36    35    36    1
    37    13    37    1
    38    32    38    1
    39    38    39    1
    40    38    40    1
    41    38    41    1
@<TRIPOS>SUBSTRUCTURE
     1 1           1 GROUP             0 ****  ****    0  
@<TRIPOS>MOLECULE
Molecule Name_00001_00249
    41    41     1     0     0
SMALL
NO_CHARGES
****
Generated from the CSD

@<TRIPOS>ATOM
     1 C5      -4.8615   0.0514  -1.0792   C.ar      1 1      0.0000
     2 C4      -3.7189   0.2823  -1.8145   C.ar      1 1      0.0000
     3 C3      -2.4726   0.1006  -1.2385   C.ar      1 1      0.0000
     4 C8      -2.3527  -0.3146   0.0788   C.ar      1 1      0.0000
     5 C7      -3.5105  -0.5419   0.8068   C.ar      1 1      0.0000
     6 C6      -4.7572  -0.3606   0.2318   C.ar      1 1      0.0000
     7 H4      -3.7960   0.6071  -2.8468   H         1 1      0.0000
     8 C9      -0.9940  -0.5093   0.7072   C.3       1 1      0.0000
     9 H7      -3.4389  -0.8659   1.8398   H         1 1      0.0000
    10 H6      -5.6539  -0.5433   0.8147   H         1 1      0.0000
    11 C10     -0.4253   0.7709   1.3159   C.3       1 1      0.0000
    12 H9A     -1.0702  -1.2737   1.4903   H         1 1      0.0000
    13 C11      0.9003   0.6128   2.0432   C.3       1 1      0.0000
    14 C12      2.0605   1.1951   1.2434   C.3       1 1      0.0000
    15 H12A     2.9164   1.3473   1.9125   H         1 1      0.0000
    16 C13      2.4814   0.3173   0.1042   C.2       1 1      0.0000
    17 C14      3.4757   0.8760  -0.8689   C.3       1 1      0.0000
    18 H14B     3.2342   1.9301  -1.0530   H         1 1      0.0000
    19 H14A     3.3847   0.3439  -1.8237   H         1 1      0.0000
    20 N        2.0030  -0.9048  -0.0185   N.pl3     1 1      0.0000
    21 HN       1.4036  -1.2359   0.7373   H         1 1      0.0000
    22 C        2.3483  -1.8748  -1.0474   C.3       1 1      0.0000
    23 H1A      2.3430  -2.8847  -0.6427   H         1 1      0.0000
    24 H1C      1.6359  -1.8354  -1.8688   H         1 1      0.0000
    25 H1B      3.3395  -1.6759  -1.4493   H         1 1      0.0000
    26 H10A    -0.2929   1.5059   0.5124   H         1 1      0.0000
    27 H10B    -1.1612   1.1750   2.0221   H         1 1      0.0000
    28 H9B     -0.2989  -0.8812  -0.0557   H         1 1      0.0000
    29 H5      -5.8381   0.1933  -1.5302   H         1 1      0.0000
    30 H3      -1.5791   0.2856  -1.8255   H         1 1      0.0000
    31 H12B     1.7668   2.1757   0.8491   H         1 1      0.0000
    32 C15      4.9113   0.7813  -0.3864   C.3       1 1      0.0000
    33 H15A     5.1590  -0.2707  -0.1984   H         1 1      0.0000
    34 H15C     5.0084   1.3224   0.5629   H         1 1      0.0000
    35 OH       0.8206   1.2794   3.3061   O.3       1 1      0.0000
    36 OH1      0.0846   0.8898   3.8395   H         1 1      0.0000
    37 H22      1.0879  -0.4584   2.2145   H         1 1      0.0000
    38 C16      5.8929   1.3506  -1.3845   C.3       1 1      0.0000
    39 H16C     5.6843   2.4014  -1.5742   H         1 1      0.0000
    40 H16A     6.9121   1.2692  -1.0125   H         1 1      0.0000
    41 H16B     5.8339   0.8171  -2.3308   H         1 1      0.0000
@<TRIPOS>BOND
     1     1     2   ar
     2     1     6   ar
     3     1    29    1
     4     2     3   ar
     5     2     7    1
     6     3     4   ar
     7     3    30    1
     8     4     5   ar
     9     4     8    1
    10     5     6   ar
    11     5     9    1
    12     6    10    1
    13     8    11    1
    14     8    12    1
    15     8    28    1
    16    11    13    1
    17    11    26    1
    18    11    27    1
    19    13    14    1
    20    14    15    1
    21    14    16    1
    22    14    31    1
    23    16    17    1
    24    16    20    2
    25    17    18    1
    26    17    19    1
    27    17    32    1
    28    20    21    1
    29    20    22    1
    30    22    23    1
    31    22    24    1
    32    22    25    1
    33    32    33    1
    34    32    34    1
    35    13    35    1
    36    35    36    1
    37    13    37    1
    38    32    38    1
    39    38    39    1
    40    38    40    1
    41    38    41    1
@<TRIPOS>SUBSTRUCTURE
     1 1           1 GROUP             0 ****  ****    0  
@<TRIPOS>MOLECULE
Molecule Name_00001_00250
    41    41     1     0     0
SMALL
NO_CHARGES
****
Generated from the CSD

@<TRIPOS>ATOM
     1 C5      -4.5851   0.7999  -0.9063   C.ar      1 1      0.0000
     2 C4      -3.4021   1.2365  -1.4625   C.ar      1 1      0.0000
     3 C3      -2.1947   0.7183  -1.0247   C.ar      1 1      0.0000
     4 C8      -2.1546  -0.2430  -0.0265   C.ar      1 1      0.0000
     5 C7      -3.3522  -0.6720   0.5248   C.ar      1 1      0.0000
     6 C6      -4.5601  -0.1544   0.0877   C.ar      1 1      0.0000
     7 H4      -3.4167   1.9879  -2.2450   H         1 1      0.0000
     8 C9      -0.8381  -0.8053   0.4527   C.3       1 1      0.0000
     9 H7      -3.3430  -1.4225   1.3083   H         1 1      0.0000
    10 H6      -5.4888  -0.5010   0.5288   H         1 1      0.0000
    11 C10     -0.2005   0.0246   1.5653   C.3       1 1      0.0000
    12 H9A     -0.9991  -1.8273   0.8173   H         1 1      0.0000
    13 C11      1.0820  -0.5457   2.1492   C.3       1 1      0.0000
    14 C12      2.3106   0.2320   1.6906   C.3       1 1      0.0000
    15 H12A     3.1498   0.0032   2.3590   H         1 1      0.0000
    16 C13      2.7084  -0.0854   0.2812   C.2       1 1      0.0000
    17 C14      3.7764   0.7612  -0.3437   C.3       1 1      0.0000
    18 H14B     4.2591   0.1857  -1.1432   H         1 1      0.0000
    19 H14A     4.5418   0.9898   0.4080   H         1 1      0.0000
    20 N        2.1470  -1.0848  -0.3696   N.pl3     1 1      0.0000
    21 HN       1.4973  -1.6646   0.1613   H         1 1      0.0000
    22 C        2.4587  -1.5271  -1.7210   C.3       1 1      0.0000
    23 H1A      2.0178  -2.5019  -1.9190   H         1 1      0.0000
    24 H1C      2.0707  -0.8244  -2.4555   H         1 1      0.0000
    25 H1B      3.5343  -1.6062  -1.8635   H         1 1      0.0000
    26 H10A     0.0151   1.0247   1.1696   H         1 1      0.0000
    27 H10B    -0.9307   0.1351   2.3765   H         1 1      0.0000
    28 H9B     -0.1440  -0.8587  -0.3952   H         1 1      0.0000
    29 H5      -5.5312   1.2055  -1.2492   H         1 1      0.0000
    30 H3      -1.2687   1.0689  -1.4684   H         1 1      0.0000
    31 H12B     2.1041   1.3065   1.7700   H         1 1      0.0000
    32 C15      3.2529   2.0611  -0.9258   C.3       1 1      0.0000
    33 H15A     2.7669   2.6410  -0.1315   H         1 1      0.0000
    34 H15C     2.4952   1.8354  -1.6863   H         1 1      0.0000
    35 OH       1.0043  -0.4996   3.5767   O.3       1 1      0.0000
    36 OH1      0.2224  -1.0225   3.8821   H         1 1      0.0000
    37 H22      1.1844  -1.5943   1.8296   H         1 1      0.0000
    38 C16      4.3481   2.8953  -1.5489   C.3       1 1      0.0000
    39 H16C     4.8345   2.3521  -2.3565   H         1 1      0.0000
    40 H16A     3.9442   3.8194  -1.9570   H         1 1      0.0000
    41 H16B     5.1043   3.1530  -0.8102   H         1 1      0.0000
@<TRIPOS>BOND
     1     1     2   ar
     2     1     6   ar
     3     1    29    1
     4     2     3   ar
     5     2     7    1
     6     3     4   ar
     7     3    30    1
     8     4     5   ar
     9     4     8    1
    10     5     6   ar
    11     5     9    1
    12     6    10    1
    13     8    11    1
    14     8    12    1
    15     8    28    1
    16    11    13    1
    17    11    26    1
    18    11    27    1
    19    13    14    1
    20    14    15    1
    21    14    16    1
    22    14    31    1
    23    16    17    1
    24    16    20    2
    25    17    18    1
    26    17    19    1
    27    17    32    1
    28    20    21    1
    29    20    22    1
    30    22    23    1
    31    22    24    1
    32    22    25    1
    33    32    33    1
    34    32    34    1
    35    13    35    1
    36    35    36    1
    37    13    37    1
    38    32    38    1
    39    38    39    1
    40    38    40    1
    41    38    41    1
@<TRIPOS>SUBSTRUCTURE
     1 1           1 GROUP             0 ****  ****    0  
@<TRIPOS>MOLECULE
Molecule Name_00001_00251
    41    41     1     0     0
SMALL
NO_CHARGES
****
Generated from the CSD

@<TRIPOS>ATOM
     1 C5      -4.5092   0.7588   1.2190   C.ar      1 1      0.0000
     2 C4      -4.4963   0.7131  -0.1584   C.ar      1 1      0.0000
     3 C3      -3.3989   0.1967  -0.8270   C.ar      1 1      0.0000
     4 C8      -2.3013  -0.2810  -0.1275   C.ar      1 1      0.0000
     5 C7      -2.3275  -0.2277   1.2576   C.ar      1 1      0.0000
     6 C6      -3.4244   0.2885   1.9271   C.ar      1 1      0.0000
     7 H4      -5.3478   1.0825  -0.7202   H         1 1      0.0000
     8 C9      -1.1039  -0.8408  -0.8567   C.3       1 1      0.0000
     9 H7      -1.4781  -0.5949   1.8241   H         1 1      0.0000
    10 H6      -3.4298   0.3228   3.0115   H         1 1      0.0000
    11 C10     -0.0836   0.2278  -1.2441   C.3       1 1      0.0000
    12 H9A     -0.6147  -1.5865  -0.2180   H         1 1      0.0000
    13 C11      1.1434  -0.2813  -1.9831   C.3       1 1      0.0000
    14 C12      2.4240   0.3747  -1.4785   C.3       1 1      0.0000
    15 H12A     2.3370   1.4626  -1.5889   H         1 1      0.0000
    16 C13      2.7185   0.0514  -0.0452   C.2       1 1      0.0000
    17 C14      3.8211   0.8157   0.6240   C.3       1 1      0.0000
    18 H14B     4.6465   0.9389  -0.0880   H         1 1      0.0000
    19 H14A     4.2002   0.2337   1.4729   H         1 1      0.0000
    20 N        2.0167  -0.8596   0.5989   N.pl3     1 1      0.0000
    21 HN       1.2271  -1.2643   0.0959   H         1 1      0.0000
    22 C        2.1673  -1.2479   1.9938   C.3       1 1      0.0000
    23 H1A      1.2030  -1.4994   2.4304   H         1 1      0.0000
    24 H1C      2.8168  -2.1161   2.0841   H         1 1      0.0000
    25 H1B      2.6021  -0.4381   2.5758   H         1 1      0.0000
    26 H10A    -0.5848   0.9702  -1.8774   H         1 1      0.0000
    27 H10B     0.2489   0.7362  -0.3306   H         1 1      0.0000
    28 H9B     -1.4470  -1.3524  -1.7644   H         1 1      0.0000
    29 H5      -5.3689   1.1630   1.7431   H         1 1      0.0000
    30 H3      -3.3981   0.1656  -1.9115   H         1 1      0.0000
    31 H12B     3.2650   0.0424  -2.0996   H         1 1      0.0000
    32 C15      3.3932   2.1856   1.1169   C.3       1 1      0.0000
    33 H15A     2.5662   2.0699   1.8282   H         1 1      0.0000
    34 H15C     3.0242   2.7744   0.2680   H         1 1      0.0000
    35 OH       1.2404  -1.6971  -1.8042   O.3       1 1      0.0000
    36 OH1      0.5619  -2.1482  -2.3648   H         1 1      0.0000
    37 H22      1.0301  -0.0626  -3.0562   H         1 1      0.0000
    38 C16      4.5217   2.9348   1.7869   C.3       1 1      0.0000
    39 H16C     5.3493   3.0836   1.0964   H         1 1      0.0000
    40 H16A     4.1864   3.9114   2.1295   H         1 1      0.0000
    41 H16B     4.8936   2.3829   2.6476   H         1 1      0.0000
@<TRIPOS>BOND
     1     1     2   ar
     2     1     6   ar
     3     1    29    1
     4     2     3   ar
     5     2     7    1
     6     3     4   ar
     7     3    30    1
     8     4     5   ar
     9     4     8    1
    10     5     6   ar
    11     5     9    1
    12     6    10    1
    13     8    11    1
    14     8    12    1
    15     8    28    1
    16    11    13    1
    17    11    26    1
    18    11    27    1
    19    13    14    1
    20    14    15    1
    21    14    16    1
    22    14    31    1
    23    16    17    1
    24    16    20    2
    25    17    18    1
    26    17    19    1
    27    17    32    1
    28    20    21    1
    29    20    22    1
    30    22    23    1
    31    22    24    1
    32    22    25    1
    33    32    33    1
    34    32    34    1
    35    13    35    1
    36    35    36    1
    37    13    37    1
    38    32    38    1
    39    38    39    1
    40    38    40    1
    41    38    41    1
@<TRIPOS>SUBSTRUCTURE
     1 1           1 GROUP             0 ****  ****    0  
@<TRIPOS>MOLECULE
Molecule Name_00001_00252
    41    41     1     0     0
SMALL
NO_CHARGES
****
Generated from the CSD

@<TRIPOS>ATOM
     1 C5      -4.8412   0.7181   0.8837   C.ar      1 1      0.0000
     2 C4      -4.7333   0.3687  -0.4450   C.ar      1 1      0.0000
     3 C3      -3.5512  -0.1653  -0.9301   C.ar      1 1      0.0000
     4 C8      -2.4626  -0.3575  -0.0932   C.ar      1 1      0.0000
     5 C7      -2.5849  -0.0003   1.2408   C.ar      1 1      0.0000
     6 C6      -3.7667   0.5337   1.7268   C.ar      1 1      0.0000
     7 H4      -5.5765   0.5123  -1.1127   H         1 1      0.0000
     8 C9      -1.1731  -0.9366  -0.6230   C.3       1 1      0.0000
     9 H7      -1.7444  -0.1410   1.9123   H         1 1      0.0000
    10 H6      -3.8467   0.8076   2.7736   H         1 1      0.0000
    11 C10     -0.2327   0.1202  -1.1992   C.3       1 1      0.0000
    12 H9A     -0.6602  -1.4659   0.1895   H         1 1      0.0000
    13 C11      1.0822  -0.4089  -1.7488   C.3       1 1      0.0000
    14 C12      2.2605   0.4736  -1.3520   C.3       1 1      0.0000
    15 H12A     2.0808   1.4945  -1.7112   H         1 1      0.0000
    16 C13      2.4884   0.5101   0.1286   C.2       1 1      0.0000
    17 C14      3.4691   1.5155   0.6531   C.3       1 1      0.0000
    18 H14B     3.2236   1.7341   1.6997   H         1 1      0.0000
    19 H14A     3.3665   2.4494   0.0870   H         1 1      0.0000
    20 N        1.8330  -0.3033   0.9324   N.pl3     1 1      0.0000
    21 HN       1.1191  -0.8903   0.5012   H         1 1      0.0000
    22 C        1.9266  -0.3535   2.3842   C.3       1 1      0.0000
    23 H1A      1.0546  -0.8455   2.8101   H         1 1      0.0000
    24 H1C      2.8117  -0.9049   2.6944   H         1 1      0.0000
    25 H1B      1.9883   0.6488   2.8026   H         1 1      0.0000
    26 H10A    -0.7576   0.6462  -2.0062   H         1 1      0.0000
    27 H10B    -0.0096   0.8511  -0.4122   H         1 1      0.0000
    28 H9B     -1.4068  -1.6704  -1.4042   H         1 1      0.0000
    29 H5      -5.7673   1.1363   1.2642   H         1 1      0.0000
    30 H3      -3.4760  -0.4367  -1.9779   H         1 1      0.0000
    31 H12B     3.1678   0.1017  -1.8439   H         1 1      0.0000
    32 C15      4.9111   1.0487   0.5774   C.3       1 1      0.0000
    33 H15A     5.1628   0.8264  -0.4669   H         1 1      0.0000
    34 H15C     5.0196   0.1208   1.1523   H         1 1      0.0000
    35 OH       1.2976  -1.7312  -1.2479   O.3       1 1      0.0000
    36 OH1      0.7394  -2.3714  -1.7543   H         1 1      0.0000
    37 H22      1.0202  -0.4475  -2.8474   H         1 1      0.0000
    38 C16      5.8786   2.0793   1.1116   C.3       1 1      0.0000
    39 H16C     5.6659   2.3038   2.1547   H         1 1      0.0000
    40 H16A     6.9027   1.7180   1.0447   H         1 1      0.0000
    41 H16B     5.8081   3.0051   0.5445   H         1 1      0.0000
@<TRIPOS>BOND
     1     1     2   ar
     2     1     6   ar
     3     1    29    1
     4     2     3   ar
     5     2     7    1
     6     3     4   ar
     7     3    30    1
     8     4     5   ar
     9     4     8    1
    10     5     6   ar
    11     5     9    1
    12     6    10    1
    13     8    11    1
    14     8    12    1
    15     8    28    1
    16    11    13    1
    17    11    26    1
    18    11    27    1
    19    13    14    1
    20    14    15    1
    21    14    16    1
    22    14    31    1
    23    16    17    1
    24    16    20    2
    25    17    18    1
    26    17    19    1
    27    17    32    1
    28    20    21    1
    29    20    22    1
    30    22    23    1
    31    22    24    1
    32    22    25    1
    33    32    33    1
    34    32    34    1
    35    13    35    1
    36    35    36    1
    37    13    37    1
    38    32    38    1
    39    38    39    1
    40    38    40    1
    41    38    41    1
@<TRIPOS>SUBSTRUCTURE
     1 1           1 GROUP             0 ****  ****    0  
@<TRIPOS>MOLECULE
Molecule Name_00001_00253
    41    41     1     0     0
SMALL
NO_CHARGES
****
Generated from the CSD

@<TRIPOS>ATOM
     1 C5      -5.3891   0.6249   0.0182   C.ar      1 1      0.0000
     2 C4      -4.7607   1.1102   1.1447   C.ar      1 1      0.0000
     3 C3      -3.3993   0.9230   1.3168   C.ar      1 1      0.0000
     4 C8      -2.6491   0.2493   0.3652   C.ar      1 1      0.0000
     5 C7      -3.2946  -0.2344  -0.7623   C.ar      1 1      0.0000
     6 C6      -4.6559  -0.0478  -0.9354   C.ar      1 1      0.0000
     7 H4      -5.3338   1.6401   1.8983   H         1 1      0.0000
     8 C9      -1.1658   0.0427   0.5548   C.3       1 1      0.0000
     9 H7      -2.7263  -0.7659  -1.5185   H         1 1      0.0000
    10 H6      -5.1463  -0.4319  -1.8237   H         1 1      0.0000
    11 C10     -0.5139  -0.7190  -0.5975   C.3       1 1      0.0000
    12 H9A     -0.6801   1.0211   0.6560   H         1 1      0.0000
    13 C11      0.9813  -0.9554  -0.4581   C.3       1 1      0.0000
    14 C12      1.7635   0.3531  -0.4277   C.3       1 1      0.0000
    15 H12A     1.4743   0.9230   0.4639   H         1 1      0.0000
    16 C13      3.2474   0.1446  -0.4139   C.2       1 1      0.0000
    17 C14      4.1173   1.3654  -0.3895   C.3       1 1      0.0000
    18 H14B     3.6601   2.1363  -1.0220   H         1 1      0.0000
    19 H14A     5.0955   1.1204  -0.8210   H         1 1      0.0000
    20 N        3.7580  -1.0705  -0.4056   N.pl3     1 1      0.0000
    21 HN       3.0946  -1.8415  -0.3302   H         1 1      0.0000
    22 C        5.1702  -1.4203  -0.3559   C.3       1 1      0.0000
    23 H1A      5.3222  -2.3293   0.2222   H         1 1      0.0000
    24 H1C      5.5614  -1.5865  -1.3575   H         1 1      0.0000
    25 H1B      5.7498  -0.6239   0.1059   H         1 1      0.0000
    26 H10A    -1.0101  -1.6928  -0.6920   H         1 1      0.0000
    27 H10B    -0.6909  -0.1610  -1.5253   H         1 1      0.0000
    28 H9B     -0.9997  -0.5104   1.4875   H         1 1      0.0000
    29 H5      -6.4556   0.7716  -0.1172   H         1 1      0.0000
    30 H3      -2.9139   1.3083   2.2074   H         1 1      0.0000
    31 H12B     1.4950   0.9509  -1.3075   H         1 1      0.0000
    32 C15      4.3207   1.9339   1.0028   C.3       1 1      0.0000
    33 H15A     5.0728   2.7313   0.9594   H         1 1      0.0000
    34 H15C     4.7070   1.1455   1.6605   H         1 1      0.0000
    35 OH       1.2276  -1.6766   0.7524   O.3       1 1      0.0000
    36 OH1      0.7418  -2.5376   0.7286   H         1 1      0.0000
    37 H22      1.3286  -1.5583  -1.3114   H         1 1      0.0000
    38 C16      3.0438   2.4886   1.5904   C.3       1 1      0.0000
    39 H16C     2.4482   1.6952   2.0369   H         1 1      0.0000
    40 H16A     3.2619   3.2240   2.3620   H         1 1      0.0000
    41 H16B     2.4435   2.9715   0.8220   H         1 1      0.0000
@<TRIPOS>BOND
     1     1     2   ar
     2     1     6   ar
     3     1    29    1
     4     2     3   ar
     5     2     7    1
     6     3     4   ar
     7     3    30    1
     8     4     5   ar
     9     4     8    1
    10     5     6   ar
    11     5     9    1
    12     6    10    1
    13     8    11    1
    14     8    12    1
    15     8    28    1
    16    11    13    1
    17    11    26    1
    18    11    27    1
    19    13    14    1
    20    14    15    1
    21    14    16    1
    22    14    31    1
    23    16    17    1
    24    16    20    2
    25    17    18    1
    26    17    19    1
    27    17    32    1
    28    20    21    1
    29    20    22    1
    30    22    23    1
    31    22    24    1
    32    22    25    1
    33    32    33    1
    34    32    34    1
    35    13    35    1
    36    35    36    1
    37    13    37    1
    38    32    38    1
    39    38    39    1
    40    38    40    1
    41    38    41    1
@<TRIPOS>SUBSTRUCTURE
     1 1           1 GROUP             0 ****  ****    0  
@<TRIPOS>MOLECULE
Molecule Name_00001_00254
    41    41     1     0     0
SMALL
NO_CHARGES
****
Generated from the CSD

@<TRIPOS>ATOM
     1 C5      -5.5153   0.5015  -0.0865   C.ar      1 1      0.0000
     2 C4      -4.9107   1.1537   0.9664   C.ar      1 1      0.0000
     3 C3      -3.5450   1.0372   1.1648   C.ar      1 1      0.0000
     4 C8      -2.7667   0.2683   0.3133   C.ar      1 1      0.0000
     5 C7      -3.3884  -0.3831  -0.7409   C.ar      1 1      0.0000
     6 C6      -4.7540  -0.2672  -0.9401   C.ar      1 1      0.0000
     7 H4      -5.5059   1.7598   1.6413   H         1 1      0.0000
     8 C9      -1.2786   0.1390   0.5318   C.3       1 1      0.0000
     9 H7      -2.7978  -0.9912  -1.4181   H         1 1      0.0000
    10 H6      -5.2256  -0.7828  -1.7702   H         1 1      0.0000
    11 C10     -0.5943  -0.7473  -0.5071   C.3       1 1      0.0000
    12 H9A     -0.8263   1.1379   0.5023   H         1 1      0.0000
    13 C11      0.9070  -0.9124  -0.3342   C.3       1 1      0.0000
    14 C12      1.6451   0.4141  -0.4774   C.3       1 1      0.0000
    15 H12A     1.3299   1.0885   0.3283   H         1 1      0.0000
    16 C13      3.1350   0.2599  -0.4301   C.2       1 1      0.0000
    17 C14      3.9633   1.5042  -0.5446   C.3       1 1      0.0000
    18 H14B     3.5068   2.1635  -1.2932   H         1 1      0.0000
    19 H14A     4.9652   1.2393  -0.9039   H         1 1      0.0000
    20 N        3.6858  -0.9276  -0.2753   N.pl3     1 1      0.0000
    21 HN       3.0478  -1.7067  -0.1136   H         1 1      0.0000
    22 C        5.1083  -1.2203  -0.1762   C.3       1 1      0.0000
    23 H1A      5.2868  -2.0332   0.5245   H         1 1      0.0000
    24 H1C      5.5098  -1.5131  -1.1441   H         1 1      0.0000
    25 H1B      5.6594  -0.3481   0.1689   H         1 1      0.0000
    26 H10A    -1.0573  -1.7411  -0.4717   H         1 1      0.0000
    27 H10B    -0.7836  -0.3244  -1.5014   H         1 1      0.0000
    28 H9B     -1.1004  -0.2788   1.5304   H         1 1      0.0000
    29 H5      -6.5852   0.5928  -0.2424   H         1 1      0.0000
    30 H3      -3.0785   1.5541   1.9969   H         1 1      0.0000
    31 H12B     1.3643   0.8788  -1.4306   H         1 1      0.0000
    32 C15      4.0930   2.2654   0.7618   C.3       1 1      0.0000
    33 H15A     3.0914   2.5027   1.1409   H         1 1      0.0000
    34 H15C     4.6134   3.2131   0.5760   H         1 1      0.0000
    35 OH       1.1691  -1.4568   0.9622   O.3       1 1      0.0000
    36 OH1      0.7123  -2.3292   1.0527   H         1 1      0.0000
    37 H22      1.2796  -1.6117  -1.0987   H         1 1      0.0000
    38 C16      4.8476   1.4828   1.8116   C.3       1 1      0.0000
    39 H16C     5.8546   1.2518   1.4707   H         1 1      0.0000
    40 H16A     4.9248   2.0521   2.7356   H         1 1      0.0000
    41 H16B     4.3410   0.5456   2.0322   H         1 1      0.0000
@<TRIPOS>BOND
     1     1     2   ar
     2     1     6   ar
     3     1    29    1
     4     2     3   ar
     5     2     7    1
     6     3     4   ar
     7     3    30    1
     8     4     5   ar
     9     4     8    1
    10     5     6   ar
    11     5     9    1
    12     6    10    1
    13     8    11    1
    14     8    12    1
    15     8    28    1
    16    11    13    1
    17    11    26    1
    18    11    27    1
    19    13    14    1
    20    14    15    1
    21    14    16    1
    22    14    31    1
    23    16    17    1
    24    16    20    2
    25    17    18    1
    26    17    19    1
    27    17    32    1
    28    20    21    1
    29    20    22    1
    30    22    23    1
    31    22    24    1
    32    22    25    1
    33    32    33    1
    34    32    34    1
    35    13    35    1
    36    35    36    1
    37    13    37    1
    38    32    38    1
    39    38    39    1
    40    38    40    1
    41    38    41    1
@<TRIPOS>SUBSTRUCTURE
     1 1           1 GROUP             0 ****  ****    0  
@<TRIPOS>MOLECULE
Molecule Name_00001_00255
    41    41     1     0     0
SMALL
NO_CHARGES
****
Generated from the CSD

@<TRIPOS>ATOM
     1 C5      -5.5168   0.6691  -0.2032   C.ar      1 1      0.0000
     2 C4      -5.0730   0.6374   1.1012   C.ar      1 1      0.0000
     3 C3      -3.7439   0.3632   1.3772   C.ar      1 1      0.0000
     4 C8      -2.8418   0.1181   0.3533   C.ar      1 1      0.0000
     5 C7      -3.3024   0.1520  -0.9539   C.ar      1 1      0.0000
     6 C6      -4.6313   0.4261  -1.2310   C.ar      1 1      0.0000
     7 H4      -5.7665   0.8277   1.9136   H         1 1      0.0000
     8 C9      -1.3938  -0.1840   0.6548   C.3       1 1      0.0000
     9 H7      -2.6132  -0.0385  -1.7699   H         1 1      0.0000
    10 H6      -4.9761   0.4496  -2.2594   H         1 1      0.0000
    11 C10     -0.5572  -0.4252  -0.6002   C.3       1 1      0.0000
    12 H9A     -0.9639   0.6560   1.2143   H         1 1      0.0000
    13 C11      0.9108  -0.7342  -0.3543   C.3       1 1      0.0000
    14 C12      1.6318   0.4287   0.3184   C.3       1 1      0.0000
    15 H12A     1.1967   0.5937   1.3119   H         1 1      0.0000
    16 C13      3.1049   0.1955   0.4632   C.2       1 1      0.0000
    17 C14      3.9133   1.2690   1.1280   C.3       1 1      0.0000
    18 H14B     4.8196   0.8171   1.5497   H         1 1      0.0000
    19 H14A     3.3368   1.6923   1.9596   H         1 1      0.0000
    20 N        3.6564  -0.9224   0.0349   N.pl3     1 1      0.0000
    21 HN       3.0201  -1.6357  -0.3207   H         1 1      0.0000
    22 C        5.0591  -1.2969   0.1415   C.3       1 1      0.0000
    23 H1A      5.1848  -2.3674  -0.0070   H         1 1      0.0000
    24 H1C      5.6542  -0.7788  -0.6075   H         1 1      0.0000
    25 H1B      5.4537  -1.0422   1.1228   H         1 1      0.0000
    26 H10A    -0.9986  -1.2634  -1.1534   H         1 1      0.0000
    27 H10B    -0.6212   0.4667  -1.2356   H         1 1      0.0000
    28 H9B     -1.3414  -1.0732   1.2951   H         1 1      0.0000
    29 H5      -6.5580   0.8841  -0.4199   H         1 1      0.0000
    30 H3      -3.4044   0.3399   2.4074   H         1 1      0.0000
    31 H12B     1.4706   1.3392  -0.2718   H         1 1      0.0000
    32 C15      4.3184   2.3892   0.1880   C.3       1 1      0.0000
    33 H15A     4.8062   3.1844   0.7651   H         1 1      0.0000
    34 H15C     3.4188   2.8148  -0.2735   H         1 1      0.0000
    35 OH       1.0093  -1.8920   0.4797   O.3       1 1      0.0000
    36 OH1      0.5640  -2.6565   0.0377   H         1 1      0.0000
    37 H22      1.3977  -0.9450  -1.3191   H         1 1      0.0000
    38 C16      5.2575   1.9180  -0.8982   C.3       1 1      0.0000
    39 H16C     4.7908   1.1423  -1.5018   H         1 1      0.0000
    40 H16A     5.5305   2.7407  -1.5557   H         1 1      0.0000
    41 H16B     6.1701   1.5101  -0.4688   H         1 1      0.0000
@<TRIPOS>BOND
     1     1     2   ar
     2     1     6   ar
     3     1    29    1
     4     2     3   ar
     5     2     7    1
     6     3     4   ar
     7     3    30    1
     8     4     5   ar
     9     4     8    1
    10     5     6   ar
    11     5     9    1
    12     6    10    1
    13     8    11    1
    14     8    12    1
    15     8    28    1
    16    11    13    1
    17    11    26    1
    18    11    27    1
    19    13    14    1
    20    14    15    1
    21    14    16    1
    22    14    31    1
    23    16    17    1
    24    16    20    2
    25    17    18    1
    26    17    19    1
    27    17    32    1
    28    20    21    1
    29    20    22    1
    30    22    23    1
    31    22    24    1
    32    22    25    1
    33    32    33    1
    34    32    34    1
    35    13    35    1
    36    35    36    1
    37    13    37    1
    38    32    38    1
    39    38    39    1
    40    38    40    1
    41    38    41    1
@<TRIPOS>SUBSTRUCTURE
     1 1           1 GROUP             0 ****  ****    0  
@<TRIPOS>MOLECULE
Molecule Name_00001_00256
    41    41     1     0     0
SMALL
NO_CHARGES
****
Generated from the CSD

@<TRIPOS>ATOM
     1 C5      -5.3887   0.7869  -0.0284   C.ar      1 1      0.0000
     2 C4      -4.9108   0.6082   1.2519   C.ar      1 1      0.0000
     3 C3      -3.5839   0.2692   1.4581   C.ar      1 1      0.0000
     4 C8      -2.7181   0.1055   0.3877   C.ar      1 1      0.0000
     5 C7      -3.2128   0.2872  -0.8946   C.ar      1 1      0.0000
     6 C6      -4.5395   0.6262  -1.1019   C.ar      1 1      0.0000
     7 H4      -5.5756   0.7333   2.1002   H         1 1      0.0000
     8 C9      -1.2727  -0.2672   0.6127   C.3       1 1      0.0000
     9 H7      -2.5524   0.1623  -1.7464   H         1 1      0.0000
    10 H6      -4.9112   0.7655  -2.1117   H         1 1      0.0000
    11 C10     -0.4785  -0.4013  -0.6851   C.3       1 1      0.0000
    12 H9A     -0.8016   0.4980   1.2420   H         1 1      0.0000
    13 C11      0.9852  -0.7757  -0.5166   C.3       1 1      0.0000
    14 C12      1.7604   0.2906   0.2495   C.3       1 1      0.0000
    15 H12A     1.3568   0.3656   1.2668   H         1 1      0.0000
    16 C13      3.2286   0.0008   0.3268   C.2       1 1      0.0000
    17 C14      4.0855   0.9677   1.0874   C.3       1 1      0.0000
    18 H14B     4.9735   0.4382   1.4541   H         1 1      0.0000
    19 H14A     3.5317   1.3305   1.9619   H         1 1      0.0000
    20 N        3.7346  -1.0759  -0.2408   N.pl3     1 1      0.0000
    21 HN       3.0681  -1.7254  -0.6579   H         1 1      0.0000
    22 C        5.1271  -1.4996  -0.2155   C.3       1 1      0.0000
    23 H1A      5.2108  -2.5621  -0.4343   H         1 1      0.0000
    24 H1C      5.7092  -0.9545  -0.9555   H         1 1      0.0000
    25 H1B      5.5685  -1.3190   0.7623   H         1 1      0.0000
    26 H10A    -0.9608  -1.1651  -1.3075   H         1 1      0.0000
    27 H10B    -0.5317   0.5529  -1.2237   H         1 1      0.0000
    28 H9B     -1.2309  -1.2188   1.1568   H         1 1      0.0000
    29 H5      -6.4281   1.0527  -0.1903   H         1 1      0.0000
    30 H3      -3.2175   0.1301   2.4698   H         1 1      0.0000
    31 H12B     1.6133   1.2611  -0.2403   H         1 1      0.0000
    32 C15      4.5342   2.1575   0.2592   C.3       1 1      0.0000
    33 H15A     5.0411   1.7964  -0.6442   H         1 1      0.0000
    34 H15C     5.2584   2.7453   0.8366   H         1 1      0.0000
    35 OH       1.0700  -2.0157   0.1912   O.3       1 1      0.0000
    36 OH1      0.5890  -2.7175  -0.3130   H         1 1      0.0000
    37 H22      1.4389  -0.8996  -1.5122   H         1 1      0.0000
    38 C16      3.3806   3.0474  -0.1422   C.3       1 1      0.0000
    39 H16C     2.6427   3.1054   0.6552   H         1 1      0.0000
    40 H16A     3.7280   4.0559  -0.3566   H         1 1      0.0000
    41 H16B     2.8880   2.6621  -1.0325   H         1 1      0.0000
@<TRIPOS>BOND
     1     1     2   ar
     2     1     6   ar
     3     1    29    1
     4     2     3   ar
     5     2     7    1
     6     3     4   ar
     7     3    30    1
     8     4     5   ar
     9     4     8    1
    10     5     6   ar
    11     5     9    1
    12     6    10    1
    13     8    11    1
    14     8    12    1
    15     8    28    1
    16    11    13    1
    17    11    26    1
    18    11    27    1
    19    13    14    1
    20    14    15    1
    21    14    16    1
    22    14    31    1
    23    16    17    1
    24    16    20    2
    25    17    18    1
    26    17    19    1
    27    17    32    1
    28    20    21    1
    29    20    22    1
    30    22    23    1
    31    22    24    1
    32    22    25    1
    33    32    33    1
    34    32    34    1
    35    13    35    1
    36    35    36    1
    37    13    37    1
    38    32    38    1
    39    38    39    1
    40    38    40    1
    41    38    41    1
@<TRIPOS>SUBSTRUCTURE
     1 1           1 GROUP             0 ****  ****    0  
@<TRIPOS>MOLECULE
Molecule Name_00001_00257
    41    41     1     0     0
SMALL
NO_CHARGES
****
Generated from the CSD

@<TRIPOS>ATOM
     1 C5      -4.4725   1.1859  -0.8802   C.ar      1 1      0.0000
     2 C4      -4.3149  -0.1810  -0.9593   C.ar      1 1      0.0000
     3 C3      -3.2760  -0.8015  -0.2859   C.ar      1 1      0.0000
     4 C8      -2.3824  -0.0641   0.4755   C.ar      1 1      0.0000
     5 C7      -2.5522   1.3101   0.5452   C.ar      1 1      0.0000
     6 C6      -3.5908   1.9316  -0.1279   C.ar      1 1      0.0000
     7 H4      -5.0064  -0.7722  -1.5506   H         1 1      0.0000
     8 C9      -1.2481  -0.7406   1.2068   C.3       1 1      0.0000
     9 H7      -1.8629   1.9060   1.1343   H         1 1      0.0000
    10 H6      -3.7106   3.0080  -0.0629   H         1 1      0.0000
    11 C10      0.0031  -0.9107   0.3475   C.3       1 1      0.0000
    12 H9A     -0.9936  -0.1485   2.0946   H         1 1      0.0000
    13 C11      1.1780  -1.5873   1.0352   C.3       1 1      0.0000
    14 C12      2.3754  -1.7335   0.1028   C.3       1 1      0.0000
    15 H12A     2.1064  -2.4023  -0.7241   H         1 1      0.0000
    16 C13      2.8392  -0.4241  -0.4595   C.2       1 1      0.0000
    17 C14      3.5924   0.4939   0.4558   C.3       1 1      0.0000
    18 H14B     4.5459   0.7588  -0.0177   H         1 1      0.0000
    19 H14A     3.8218  -0.0349   1.3889   H         1 1      0.0000
    20 N        2.6042  -0.1089  -1.7176   N.pl3     1 1      0.0000
    21 HN       2.1672  -0.8292  -2.2923   H         1 1      0.0000
    22 C        3.0246   1.1043  -2.4034   C.3       1 1      0.0000
    23 H1A      3.2643   0.8957  -3.4440   H         1 1      0.0000
    24 H1C      2.2352   1.8528  -2.3811   H         1 1      0.0000
    25 H1B      3.9075   1.5295  -1.9308   H         1 1      0.0000
    26 H10A    -0.2641  -1.4997  -0.5386   H         1 1      0.0000
    27 H10B     0.3262   0.0805   0.0062   H         1 1      0.0000
    28 H9B     -1.5833  -1.7276   1.5487   H         1 1      0.0000
    29 H5      -5.2865   1.6724  -1.4074   H         1 1      0.0000
    30 H3      -3.1601  -1.8781  -0.3550   H         1 1      0.0000
    31 H12B     3.2026  -2.1989   0.6529   H         1 1      0.0000
    32 C15      2.8396   1.7700   0.7842   C.3       1 1      0.0000
    33 H15A     1.8836   1.5122   1.2564   H         1 1      0.0000
    34 H15C     2.6187   2.3071  -0.1465   H         1 1      0.0000
    35 OH       1.5621  -0.8098   2.1727   O.3       1 1      0.0000
    36 OH1      0.7975  -0.7354   2.7955   H         1 1      0.0000
    37 H22      0.8658  -2.5874   1.3736   H         1 1      0.0000
    38 C16      3.6196   2.6772   1.7074   C.3       1 1      0.0000
    39 H16C     4.5654   2.9672   1.2546   H         1 1      0.0000
    40 H16A     3.0564   3.5822   1.9251   H         1 1      0.0000
    41 H16B     3.8341   2.1766   2.6493   H         1 1      0.0000
@<TRIPOS>BOND
     1     1     2   ar
     2     1     6   ar
     3     1    29    1
     4     2     3   ar
     5     2     7    1
     6     3     4   ar
     7     3    30    1
     8     4     5   ar
     9     4     8    1
    10     5     6   ar
    11     5     9    1
    12     6    10    1
    13     8    11    1
    14     8    12    1
    15     8    28    1
    16    11    13    1
    17    11    26    1
    18    11    27    1
    19    13    14    1
    20    14    15    1
    21    14    16    1
    22    14    31    1
    23    16    17    1
    24    16    20    2
    25    17    18    1
    26    17    19    1
    27    17    32    1
    28    20    21    1
    29    20    22    1
    30    22    23    1
    31    22    24    1
    32    22    25    1
    33    32    33    1
    34    32    34    1
    35    13    35    1
    36    35    36    1
    37    13    37    1
    38    32    38    1
    39    38    39    1
    40    38    40    1
    41    38    41    1
@<TRIPOS>SUBSTRUCTURE
     1 1           1 GROUP             0 ****  ****    0  
@<TRIPOS>MOLECULE
Molecule Name_00001_00258
    41    41     1     0     0
SMALL
NO_CHARGES
****
Generated from the CSD

@<TRIPOS>ATOM
     1 C5      -4.3499   1.7953   0.4691   C.ar      1 1      0.0000
     2 C4      -4.2512   1.0490  -0.6853   C.ar      1 1      0.0000
     3 C3      -3.2709   0.0780  -0.8042   C.ar      1 1      0.0000
     4 C8      -2.3777  -0.1596   0.2292   C.ar      1 1      0.0000
     5 C7      -2.4879   0.5994   1.3841   C.ar      1 1      0.0000
     6 C6      -3.4679   1.5706   1.5039   C.ar      1 1      0.0000
     7 H4      -4.9431   1.2225  -1.5029   H         1 1      0.0000
     8 C9      -1.3072  -1.2159   0.0979   C.3       1 1      0.0000
     9 H7      -1.7979   0.4305   2.2042   H         1 1      0.0000
    10 H6      -3.5415   2.1558   2.4146   H         1 1      0.0000
    11 C10     -0.0297  -0.6971  -0.5594   C.3       1 1      0.0000
    12 H9A     -1.0638  -1.6020   1.0955   H         1 1      0.0000
    13 C11      1.0832  -1.7207  -0.7167   C.3       1 1      0.0000
    14 C12      2.2881  -1.1423  -1.4504   C.3       1 1      0.0000
    15 H12A     1.9441  -0.6342  -2.3598   H         1 1      0.0000
    16 C13      3.0687  -0.1734  -0.6153   C.2       1 1      0.0000
    17 C14      2.4808   1.1898  -0.4059   C.3       1 1      0.0000
    18 H14B     1.5625   1.2723  -1.0003   H         1 1      0.0000
    19 H14A     3.1834   1.9467  -0.7753   H         1 1      0.0000
    20 N        4.2192  -0.5224  -0.0750   N.pl3     1 1      0.0000
    21 HN       4.4994  -1.4960  -0.1923   H         1 1      0.0000
    22 C        5.0618   0.2981   0.7828   C.3       1 1      0.0000
    23 H1A      4.8931   0.0597   1.8309   H         1 1      0.0000
    24 H1C      6.1141   0.1312   0.5627   H         1 1      0.0000
    25 H1B      4.8491   1.3550   0.6371   H         1 1      0.0000
    26 H10A    -0.2857  -0.3098  -1.5533   H         1 1      0.0000
    27 H10B     0.3520   0.1397   0.0385   H         1 1      0.0000
    28 H9B     -1.7008  -2.0500  -0.4959   H         1 1      0.0000
    29 H5      -5.1180   2.5559   0.5627   H         1 1      0.0000
    30 H3      -3.2010  -0.5038  -1.7173   H         1 1      0.0000
    31 H12B     2.9486  -1.9631  -1.7563   H         1 1      0.0000
    32 C15      2.1515   1.4888   1.0450   C.3       1 1      0.0000
    33 H15A     3.0742   1.4565   1.6374   H         1 1      0.0000
    34 H15C     1.4800   0.7110   1.4292   H         1 1      0.0000
    35 OH       1.4931  -2.1655   0.5794   O.3       1 1      0.0000
    36 OH1      0.7208  -2.5639   1.0515   H         1 1      0.0000
    37 H22      0.6989  -2.5812  -1.2860   H         1 1      0.0000
    38 C16      1.4972   2.8397   1.2202   C.3       1 1      0.0000
    39 H16C     0.5662   2.8929   0.6597   H         1 1      0.0000
    40 H16A     1.2730   3.0266   2.2683   H         1 1      0.0000
    41 H16B     2.1515   3.6338   0.8667   H         1 1      0.0000
@<TRIPOS>BOND
     1     1     2   ar
     2     1     6   ar
     3     1    29    1
     4     2     3   ar
     5     2     7    1
     6     3     4   ar
     7     3    30    1
     8     4     5   ar
     9     4     8    1
    10     5     6   ar
    11     5     9    1
    12     6    10    1
    13     8    11    1
    14     8    12    1
    15     8    28    1
    16    11    13    1
    17    11    26    1
    18    11    27    1
    19    13    14    1
    20    14    15    1
    21    14    16    1
    22    14    31    1
    23    16    17    1
    24    16    20    2
    25    17    18    1
    26    17    19    1
    27    17    32    1
    28    20    21    1
    29    20    22    1
    30    22    23    1
    31    22    24    1
    32    22    25    1
    33    32    33    1
    34    32    34    1
    35    13    35    1
    36    35    36    1
    37    13    37    1
    38    32    38    1
    39    38    39    1
    40    38    40    1
    41    38    41    1
@<TRIPOS>SUBSTRUCTURE
     1 1           1 GROUP             0 ****  ****    0  
@<TRIPOS>MOLECULE
Molecule Name_00001_00259
    41    41     1     0     0
SMALL
NO_CHARGES
****
Generated from the CSD

@<TRIPOS>ATOM
     1 C5      -5.6459   0.7315  -0.2500   C.ar      1 1      0.0000
     2 C4      -4.6087   1.5835   0.0621   C.ar      1 1      0.0000
     3 C3      -3.3349   1.0816   0.2709   C.ar      1 1      0.0000
     4 C8      -3.0819  -0.2778   0.1696   C.ar      1 1      0.0000
     5 C7      -4.1349  -1.1233  -0.1438   C.ar      1 1      0.0000
     6 C6      -5.4090  -0.6223  -0.3528   C.ar      1 1      0.0000
     7 H4      -4.7904   2.6500   0.1445   H         1 1      0.0000
     8 C9      -1.6940  -0.8249   0.4005   C.3       1 1      0.0000
     9 H7      -3.9587  -2.1907  -0.2264   H         1 1      0.0000
    10 H6      -6.2225  -1.2971  -0.5980   H         1 1      0.0000
    11 C10     -0.5900   0.1288  -0.0520   C.3       1 1      0.0000
    12 H9A     -1.5677  -1.0355   1.4697   H         1 1      0.0000
    13 C11      0.8294  -0.3801   0.1415   C.3       1 1      0.0000
    14 C12      1.8655   0.6234  -0.3527   C.3       1 1      0.0000
    15 H12A     1.7930   1.5386   0.2477   H         1 1      0.0000
    16 C13      3.2672   0.0990  -0.2762   C.2       1 1      0.0000
    17 C14      4.1227   0.5745   0.8595   C.3       1 1      0.0000
    18 H14B     4.9046  -0.1716   1.0478   H         1 1      0.0000
    19 H14A     3.5104   0.6483   1.7665   H         1 1      0.0000
    20 N        3.7155  -0.7613  -1.1685   N.pl3     1 1      0.0000
    21 HN       3.0390  -1.1008  -1.8521   H         1 1      0.0000
    22 C        5.0339  -1.3778  -1.1967   C.3       1 1      0.0000
    23 H1A      5.0245  -2.2807  -1.8036   H         1 1      0.0000
    24 H1C      5.7695  -0.6950  -1.6167   H         1 1      0.0000
    25 H1B      5.3564  -1.6471  -0.1932   H         1 1      0.0000
    26 H10A    -0.7368   0.3460  -1.1172   H         1 1      0.0000
    27 H10B    -0.6981   1.0704   0.5003   H         1 1      0.0000
    28 H9B     -1.5905  -1.7733  -0.1409   H         1 1      0.0000
    29 H5      -6.6439   1.1244  -0.4140   H         1 1      0.0000
    30 H3      -2.5251   1.7605   0.5168   H         1 1      0.0000
    31 H12B     1.6396   0.8880  -1.3931   H         1 1      0.0000
    32 C15      4.7813   1.9165   0.5984   C.3       1 1      0.0000
    33 H15A     4.0047   2.6673   0.4073   H         1 1      0.0000
    34 H15C     5.4038   1.8427  -0.3019   H         1 1      0.0000
    35 OH       1.0478  -0.6325   1.5323   O.3       1 1      0.0000
    36 OH1      0.3959  -1.3036   1.8527   H         1 1      0.0000
    37 H22      0.9504  -1.3213  -0.4169   H         1 1      0.0000
    38 C16      5.6373   2.3729   1.7572   C.3       1 1      0.0000
    39 H16C     6.4314   1.6562   1.9559   H         1 1      0.0000
    40 H16A     6.0958   3.3358   1.5422   H         1 1      0.0000
    41 H16B     5.0400   2.4760   2.6607   H         1 1      0.0000
@<TRIPOS>BOND
     1     1     2   ar
     2     1     6   ar
     3     1    29    1
     4     2     3   ar
     5     2     7    1
     6     3     4   ar
     7     3    30    1
     8     4     5   ar
     9     4     8    1
    10     5     6   ar
    11     5     9    1
    12     6    10    1
    13     8    11    1
    14     8    12    1
    15     8    28    1
    16    11    13    1
    17    11    26    1
    18    11    27    1
    19    13    14    1
    20    14    15    1
    21    14    16    1
    22    14    31    1
    23    16    17    1
    24    16    20    2
    25    17    18    1
    26    17    19    1
    27    17    32    1
    28    20    21    1
    29    20    22    1
    30    22    23    1
    31    22    24    1
    32    22    25    1
    33    32    33    1
    34    32    34    1
    35    13    35    1
    36    35    36    1
    37    13    37    1
    38    32    38    1
    39    38    39    1
    40    38    40    1
    41    38    41    1
@<TRIPOS>SUBSTRUCTURE
     1 1           1 GROUP             0 ****  ****    0  
@<TRIPOS>MOLECULE
Molecule Name_00001_00260
    41    41     1     0     0
SMALL
NO_CHARGES
****
Generated from the CSD

@<TRIPOS>ATOM
     1 C5      -5.5208   0.4034   0.5279   C.ar      1 1      0.0000
     2 C4      -4.9007  -0.7468   0.0899   C.ar      1 1      0.0000
     3 C3      -3.5583  -0.7270  -0.2503   C.ar      1 1      0.0000
     4 C8      -2.8190   0.4421  -0.1562   C.ar      1 1      0.0000
     5 C7      -3.4561   1.5918   0.2847   C.ar      1 1      0.0000
     6 C6      -4.7984   1.5730   0.6251   C.ar      1 1      0.0000
     7 H4      -5.4654  -1.6699   0.0113   H         1 1      0.0000
     8 C9      -1.3566   0.4640  -0.5301   C.3       1 1      0.0000
     9 H7      -2.8961   2.5178   0.3641   H         1 1      0.0000
    10 H6      -5.2823   2.4811   0.9691   H         1 1      0.0000
    11 C10     -0.6374  -0.8466  -0.2172   C.3       1 1      0.0000
    12 H9A     -1.2667   0.6731  -1.6033   H         1 1      0.0000
    13 C11      0.8438  -0.8737  -0.5579   C.3       1 1      0.0000
    14 C12      1.6582   0.0162   0.3747   C.3       1 1      0.0000
    15 H12A     1.6109  -0.3922   1.3917   H         1 1      0.0000
    16 C13      3.0940   0.1331  -0.0382   C.2       1 1      0.0000
    17 C14      3.8051   1.4125   0.2861   C.3       1 1      0.0000
    18 H14B     3.1182   2.2505   0.1143   H         1 1      0.0000
    19 H14A     4.6551   1.5361  -0.3960   H         1 1      0.0000
    20 N        3.7044  -0.8640  -0.6470   N.pl3     1 1      0.0000
    21 HN       3.1735  -1.7292  -0.7456   H         1 1      0.0000
    22 C        5.0967  -0.9032  -1.0699   C.3       1 1      0.0000
    23 H1A      5.5025  -1.9075  -0.9680   H         1 1      0.0000
    24 H1C      5.1916  -0.6036  -2.1116   H         1 1      0.0000
    25 H1B      5.7029  -0.2299  -0.4677   H         1 1      0.0000
    26 H10A    -0.7491  -1.0543   0.8542   H         1 1      0.0000
    27 H10B    -1.1341  -1.6543  -0.7688   H         1 1      0.0000
    28 H9B     -0.8629   1.2803   0.0114   H         1 1      0.0000
    29 H5      -6.5724   0.3882   0.7947   H         1 1      0.0000
    30 H3      -3.0793  -1.6376  -0.5946   H         1 1      0.0000
    31 H12B     1.2100   1.0172   0.3959   H         1 1      0.0000
    32 C15      4.3069   1.4784   1.7167   C.3       1 1      0.0000
    33 H15A     4.9933   0.6416   1.8960   H         1 1      0.0000
    34 H15C     3.4573   1.3667   2.4016   H         1 1      0.0000
    35 OH       1.3202  -2.2185  -0.4566   O.3       1 1      0.0000
    36 OH1      0.8117  -2.7968  -1.0771   H         1 1      0.0000
    37 H22      0.9785  -0.5228  -1.5928   H         1 1      0.0000
    38 C16      5.0193   2.7767   2.0177   C.3       1 1      0.0000
    39 H16C     4.3544   3.6249   1.8690   H         1 1      0.0000
    40 H16A     5.3675   2.7956   3.0483   H         1 1      0.0000
    41 H16B     5.8815   2.9036   1.3663   H         1 1      0.0000
@<TRIPOS>BOND
     1     1     2   ar
     2     1     6   ar
     3     1    29    1
     4     2     3   ar
     5     2     7    1
     6     3     4   ar
     7     3    30    1
     8     4     5   ar
     9     4     8    1
    10     5     6   ar
    11     5     9    1
    12     6    10    1
    13     8    11    1
    14     8    12    1
    15     8    28    1
    16    11    13    1
    17    11    26    1
    18    11    27    1
    19    13    14    1
    20    14    15    1
    21    14    16    1
    22    14    31    1
    23    16    17    1
    24    16    20    2
    25    17    18    1
    26    17    19    1
    27    17    32    1
    28    20    21    1
    29    20    22    1
    30    22    23    1
    31    22    24    1
    32    22    25    1
    33    32    33    1
    34    32    34    1
    35    13    35    1
    36    35    36    1
    37    13    37    1
    38    32    38    1
    39    38    39    1
    40    38    40    1
    41    38    41    1
@<TRIPOS>SUBSTRUCTURE
     1 1           1 GROUP             0 ****  ****    0  
@<TRIPOS>MOLECULE
Molecule Name_00001_00261
    41    41     1     0     0
SMALL
NO_CHARGES
****
Generated from the CSD

@<TRIPOS>ATOM
     1 C5      -5.4649   0.3191   0.4806   C.ar      1 1      0.0000
     2 C4      -4.8560  -0.4014  -0.5241   C.ar      1 1      0.0000
     3 C3      -3.4895  -0.2981  -0.7241   C.ar      1 1      0.0000
     4 C8      -2.7146   0.5257   0.0778   C.ar      1 1      0.0000
     5 C7      -3.3407   1.2455   1.0838   C.ar      1 1      0.0000
     6 C6      -4.7071   1.1429   1.2846   C.ar      1 1      0.0000
     7 H4      -5.4485  -1.0511  -1.1599   H         1 1      0.0000
     8 C9      -1.2257   0.6405  -0.1426   C.3       1 1      0.0000
     9 H7      -2.7529   1.8973   1.7216   H         1 1      0.0000
    10 H6      -5.1821   1.7123   2.0766   H         1 1      0.0000
    11 C10     -0.5897  -0.6586  -0.6335   C.3       1 1      0.0000
    12 H9A     -1.0346   1.4316  -0.8782   H         1 1      0.0000
    13 C11      0.9132  -0.6042  -0.8554   C.3       1 1      0.0000
    14 C12      1.6788  -0.5040   0.4593   C.3       1 1      0.0000
    15 H12A     1.5271  -1.4262   1.0337   H         1 1      0.0000
    16 C13      3.1486  -0.2876   0.2626   C.2       1 1      0.0000
    17 C14      3.8799   0.4922   1.3138   C.3       1 1      0.0000
    18 H14B     4.9396   0.2101   1.2879   H         1 1      0.0000
    19 H14A     3.4890   0.2208   2.3020   H         1 1      0.0000
    20 N        3.7688  -0.7837  -0.7893   N.pl3     1 1      0.0000
    21 HN       3.2141  -1.3777  -1.4054   H         1 1      0.0000
    22 C        5.1898  -0.6834  -1.0886   C.3       1 1      0.0000
    23 H1A      5.4210  -1.1750  -2.0314   H         1 1      0.0000
    24 H1C      5.4948   0.3581  -1.1660   H         1 1      0.0000
    25 H1B      5.7836  -1.1527  -0.3072   H         1 1      0.0000
    26 H10A    -0.8022  -1.4457   0.1004   H         1 1      0.0000
    27 H10B    -1.0688  -0.9430  -1.5785   H         1 1      0.0000
    28 H9B     -0.7482   0.9381   0.7991   H         1 1      0.0000
    29 H5      -6.5354   0.2382   0.6377   H         1 1      0.0000
    30 H3      -3.0195  -0.8690  -1.5181   H         1 1      0.0000
    31 H12B     1.2712   0.3269   1.0483   H         1 1      0.0000
    32 C15      3.7705   1.9953   1.1358   C.3       1 1      0.0000
    33 H15A     2.7125   2.2842   1.1587   H         1 1      0.0000
    34 H15C     4.1713   2.2714   0.1527   H         1 1      0.0000
    35 OH       1.3244  -1.7862  -1.5480   O.3       1 1      0.0000
    36 OH1      0.8488  -1.8445  -2.4131   H         1 1      0.0000
    37 H22      1.1512   0.2749  -1.4741   H         1 1      0.0000
    38 C16      4.5155   2.7576   2.2071   C.3       1 1      0.0000
    39 H16C     5.5740   2.5066   2.1935   H         1 1      0.0000
    40 H16A     4.4195   3.8305   2.0544   H         1 1      0.0000
    41 H16B     4.1232   2.5192   3.1935   H         1 1      0.0000
@<TRIPOS>BOND
     1     1     2   ar
     2     1     6   ar
     3     1    29    1
     4     2     3   ar
     5     2     7    1
     6     3     4   ar
     7     3    30    1
     8     4     5   ar
     9     4     8    1
    10     5     6   ar
    11     5     9    1
    12     6    10    1
    13     8    11    1
    14     8    12    1
    15     8    28    1
    16    11    13    1
    17    11    26    1
    18    11    27    1
    19    13    14    1
    20    14    15    1
    21    14    16    1
    22    14    31    1
    23    16    17    1
    24    16    20    2
    25    17    18    1
    26    17    19    1
    27    17    32    1
    28    20    21    1
    29    20    22    1
    30    22    23    1
    31    22    24    1
    32    22    25    1
    33    32    33    1
    34    32    34    1
    35    13    35    1
    36    35    36    1
    37    13    37    1
    38    32    38    1
    39    38    39    1
    40    38    40    1
    41    38    41    1
@<TRIPOS>SUBSTRUCTURE
     1 1           1 GROUP             0 ****  ****    0  
@<TRIPOS>MOLECULE
Molecule Name_00001_00262
    41    41     1     0     0
SMALL
NO_CHARGES
****
Generated from the CSD

@<TRIPOS>ATOM
     1 C5      -4.5696  -0.2399   1.5271   C.ar      1 1      0.0000
     2 C4      -3.6080   0.7205   1.7560   C.ar      1 1      0.0000
     3 C3      -2.6198   0.9537   0.8142   C.ar      1 1      0.0000
     4 C8      -2.5808   0.2309  -0.3682   C.ar      1 1      0.0000
     5 C7      -3.5537  -0.7328  -0.5846   C.ar      1 1      0.0000
     6 C6      -4.5423  -0.9668   0.3565   C.ar      1 1      0.0000
     7 H4      -3.6252   1.2951   2.6762   H         1 1      0.0000
     8 C9      -1.5015   0.4832  -1.3931   C.3       1 1      0.0000
     9 H7      -3.5404  -1.3108  -1.5028   H         1 1      0.0000
    10 H6      -5.2970  -1.7242   0.1720   H         1 1      0.0000
    11 C10     -0.0906   0.3140  -0.8329   C.3       1 1      0.0000
    12 H9A     -1.6380  -0.2105  -2.2319   H         1 1      0.0000
    13 C11      1.0365   0.5566  -1.8238   C.3       1 1      0.0000
    14 C12      2.2722   1.1402  -1.1477   C.3       1 1      0.0000
    15 H12A     1.9940   2.0669  -0.6307   H         1 1      0.0000
    16 C13      2.8959   0.1995  -0.1619   C.2       1 1      0.0000
    17 C14      3.9426   0.7542   0.7570   C.3       1 1      0.0000
    18 H14B     4.5750   1.4495   0.1913   H         1 1      0.0000
    19 H14A     4.5830  -0.0632   1.1102   H         1 1      0.0000
    20 N        2.5185  -1.0620  -0.1012   N.pl3     1 1      0.0000
    21 HN       1.7373  -1.3317  -0.6989   H         1 1      0.0000
    22 C        3.0086  -2.0729   0.8245   C.3       1 1      0.0000
    23 H1A      2.2131  -2.7628   1.0986   H         1 1      0.0000
    24 H1C      3.8156  -2.6478   0.3752   H         1 1      0.0000
    25 H1B      3.3869  -1.6128   1.7347   H         1 1      0.0000
    26 H10A     0.0327   1.0086   0.0072   H         1 1      0.0000
    27 H10B     0.0065  -0.7062  -0.4416   H         1 1      0.0000
    28 H9B     -1.6113   1.5030  -1.7821   H         1 1      0.0000
    29 H5      -5.3441  -0.4227   2.2646   H         1 1      0.0000
    30 H3      -1.8669   1.7115   1.0041   H         1 1      0.0000
    31 H12B     3.0130   1.3958  -1.9153   H         1 1      0.0000
    32 C15      3.3672   1.4838   1.9568   C.3       1 1      0.0000
    33 H15A     2.7317   0.7944   2.5262   H         1 1      0.0000
    34 H15C     2.7353   2.3094   1.6069   H         1 1      0.0000
    35 OH       1.3843  -0.6835  -2.4458   O.3       1 1      0.0000
    36 OH1      0.5924  -1.0556  -2.9067   H         1 1      0.0000
    37 H22      0.6877   1.2595  -2.5962   H         1 1      0.0000
    38 C16      4.4418   2.0328   2.8665   C.3       1 1      0.0000
    39 H16C     5.0757   2.7379   2.3328   H         1 1      0.0000
    40 H16A     4.0008   2.5495   3.7163   H         1 1      0.0000
    41 H16B     5.0718   1.2314   3.2467   H         1 1      0.0000
@<TRIPOS>BOND
     1     1     2   ar
     2     1     6   ar
     3     1    29    1
     4     2     3   ar
     5     2     7    1
     6     3     4   ar
     7     3    30    1
     8     4     5   ar
     9     4     8    1
    10     5     6   ar
    11     5     9    1
    12     6    10    1
    13     8    11    1
    14     8    12    1
    15     8    28    1
    16    11    13    1
    17    11    26    1
    18    11    27    1
    19    13    14    1
    20    14    15    1
    21    14    16    1
    22    14    31    1
    23    16    17    1
    24    16    20    2
    25    17    18    1
    26    17    19    1
    27    17    32    1
    28    20    21    1
    29    20    22    1
    30    22    23    1
    31    22    24    1
    32    22    25    1
    33    32    33    1
    34    32    34    1
    35    13    35    1
    36    35    36    1
    37    13    37    1
    38    32    38    1
    39    38    39    1
    40    38    40    1
    41    38    41    1
@<TRIPOS>SUBSTRUCTURE
     1 1           1 GROUP             0 ****  ****    0  
@<TRIPOS>MOLECULE
Molecule Name_00001_00263
    41    41     1     0     0
SMALL
NO_CHARGES
****
Generated from the CSD

@<TRIPOS>ATOM
     1 C5      -4.8875  -0.7021   1.1552   C.ar      1 1      0.0000
     2 C4      -4.0022   0.2098   1.6882   C.ar      1 1      0.0000
     3 C3      -2.9546   0.6923   0.9215   C.ar      1 1      0.0000
     4 C8      -2.7793   0.2701  -0.3874   C.ar      1 1      0.0000
     5 C7      -3.6766  -0.6484  -0.9101   C.ar      1 1      0.0000
     6 C6      -4.7245  -1.1314  -0.1442   C.ar      1 1      0.0000
     7 H4      -4.1262   0.5505   2.7109   H         1 1      0.0000
     8 C9      -1.6354   0.7937  -1.2217   C.3       1 1      0.0000
     9 H7      -3.5564  -0.9930  -1.9319   H         1 1      0.0000
    10 H6      -5.4187  -1.8495  -0.5681   H         1 1      0.0000
    11 C10     -0.2678   0.5461  -0.5881   C.3       1 1      0.0000
    12 H9A     -1.6644   0.3130  -2.2073   H         1 1      0.0000
    13 C11      0.9214   1.0540  -1.3873   C.3       1 1      0.0000
    14 C12      2.0637   1.5040  -0.4831   C.3       1 1      0.0000
    15 H12A     1.6935   2.2727   0.2064   H         1 1      0.0000
    16 C13      2.6555   0.3797   0.3113   C.2       1 1      0.0000
    17 C14      3.5913   0.7381   1.4264   C.3       1 1      0.0000
    18 H14B     3.5943  -0.0779   2.1596   H         1 1      0.0000
    19 H14A     3.2211   1.6375   1.9335   H         1 1      0.0000
    20 N        2.3445  -0.8728   0.0431   N.pl3     1 1      0.0000
    21 HN       1.6310  -1.0209  -0.6704   H         1 1      0.0000
    22 C        2.8123  -2.0559   0.7507   C.3       1 1      0.0000
    23 H1A      2.2123  -2.9246   0.4880   H         1 1      0.0000
    24 H1C      3.8485  -2.2711   0.4985   H         1 1      0.0000
    25 H1B      2.7487  -1.9129   1.8272   H         1 1      0.0000
    26 H10A    -0.2521   1.0270   0.3978   H         1 1      0.0000
    27 H10B    -0.1470  -0.5336  -0.4364   H         1 1      0.0000
    28 H9B     -1.7690   1.8721  -1.3723   H         1 1      0.0000
    29 H5      -5.7084  -1.0801   1.7555   H         1 1      0.0000
    30 H3      -2.2627   1.4095   1.3504   H         1 1      0.0000
    31 H12B     2.8496   1.9586  -1.0989   H         1 1      0.0000
    32 C15      5.0156   0.9836   0.9638   C.3       1 1      0.0000
    33 H15A     5.0198   1.7976   0.2285   H         1 1      0.0000
    34 H15C     5.3929   0.0816   0.4663   H         1 1      0.0000
    35 OH       1.3868   0.0080  -2.2446   O.3       1 1      0.0000
    36 OH1      0.6570  -0.2721  -2.8503   H         1 1      0.0000
    37 H22      0.5987   1.9065  -2.0047   H         1 1      0.0000
    38 C16      5.9380   1.3428   2.1057   C.3       1 1      0.0000
    39 H16C     5.9706   0.5421   2.8417   H         1 1      0.0000
    40 H16A     6.9502   1.5130   1.7450   H         1 1      0.0000
    41 H16B     5.5993   2.2483   2.6048   H         1 1      0.0000
@<TRIPOS>BOND
     1     1     2   ar
     2     1     6   ar
     3     1    29    1
     4     2     3   ar
     5     2     7    1
     6     3     4   ar
     7     3    30    1
     8     4     5   ar
     9     4     8    1
    10     5     6   ar
    11     5     9    1
    12     6    10    1
    13     8    11    1
    14     8    12    1
    15     8    28    1
    16    11    13    1
    17    11    26    1
    18    11    27    1
    19    13    14    1
    20    14    15    1
    21    14    16    1
    22    14    31    1
    23    16    17    1
    24    16    20    2
    25    17    18    1
    26    17    19    1
    27    17    32    1
    28    20    21    1
    29    20    22    1
    30    22    23    1
    31    22    24    1
    32    22    25    1
    33    32    33    1
    34    32    34    1
    35    13    35    1
    36    35    36    1
    37    13    37    1
    38    32    38    1
    39    38    39    1
    40    38    40    1
    41    38    41    1
@<TRIPOS>SUBSTRUCTURE
     1 1           1 GROUP             0 ****  ****    0  
@<TRIPOS>MOLECULE
Molecule Name_00001_00264
    41    41     1     0     0
SMALL
NO_CHARGES
****
Generated from the CSD

@<TRIPOS>ATOM
     1 C5      -5.5148   0.5073   0.4723   C.ar      1 1      0.0000
     2 C4      -5.1597  -0.5713  -0.3087   C.ar      1 1      0.0000
     3 C3      -3.8240  -0.8904  -0.4882   C.ar      1 1      0.0000
     4 C8      -2.8269  -0.1362   0.1111   C.ar      1 1      0.0000
     5 C7      -3.1986   0.9467   0.8929   C.ar      1 1      0.0000
     6 C6      -4.5340   1.2666   1.0731   C.ar      1 1      0.0000
     7 H4      -5.9282  -1.1718  -0.7840   H         1 1      0.0000
     8 C9      -1.3711  -0.4824  -0.0875   C.3       1 1      0.0000
     9 H7      -2.4339   1.5510   1.3697   H         1 1      0.0000
    10 H6      -4.8087   2.1168   1.6885   H         1 1      0.0000
    11 C10     -0.5848   0.6162  -0.8002   C.3       1 1      0.0000
    12 H9A     -0.9133  -0.6711   0.8914   H         1 1      0.0000
    13 C11      0.8889   0.3195  -1.0265   C.3       1 1      0.0000
    14 C12      1.6445   0.1566   0.2877   C.3       1 1      0.0000
    15 H12A     1.2451  -0.7122   0.8255   H         1 1      0.0000
    16 C13      3.1192  -0.0252   0.0933   C.2       1 1      0.0000
    17 C14      4.0052   1.1491   0.3827   C.3       1 1      0.0000
    18 H14B     3.5147   2.0591   0.0156   H         1 1      0.0000
    19 H14A     4.9469   1.0354  -0.1680   H         1 1      0.0000
    20 N        3.6102  -1.1833  -0.3005   N.pl3     1 1      0.0000
    21 HN       2.9463  -1.9529  -0.3855   H         1 1      0.0000
    22 C        5.0150  -1.5118  -0.4945   C.3       1 1      0.0000
    23 H1A      5.2103  -2.5467  -0.2217   H         1 1      0.0000
    24 H1C      5.3022  -1.3759  -1.5351   H         1 1      0.0000
    25 H1B      5.6493  -0.8743   0.1176   H         1 1      0.0000
    26 H10A    -1.0538   0.7994  -1.7748   H         1 1      0.0000
    27 H10B    -0.6656   1.5378  -0.2107   H         1 1      0.0000
    28 H9B     -1.3017  -1.4078  -0.6724   H         1 1      0.0000
    29 H5      -6.5611   0.7574   0.6134   H         1 1      0.0000
    30 H3      -3.5547  -1.7411  -1.1054   H         1 1      0.0000
    31 H12B     1.4731   1.0427   0.9113   H         1 1      0.0000
    32 C15      4.3145   1.3228   1.8582   C.3       1 1      0.0000
    33 H15A     4.8035   0.4150   2.2325   H         1 1      0.0000
    34 H15C     3.3750   1.4484   2.4105   H         1 1      0.0000
    35 OH       1.0095  -0.8848  -1.7887   O.3       1 1      0.0000
    36 OH1      0.5415  -0.7770  -2.6531   H         1 1      0.0000
    37 H22      1.3370   1.1495  -1.5945   H         1 1      0.0000
    38 C16      5.2083   2.5122   2.1229   C.3       1 1      0.0000
    39 H16C     4.7380   3.4317   1.7808   H         1 1      0.0000
    40 H16A     5.4128   2.6117   3.1869   H         1 1      0.0000
    41 H16B     6.1583   2.4039   1.6038   H         1 1      0.0000
@<TRIPOS>BOND
     1     1     2   ar
     2     1     6   ar
     3     1    29    1
     4     2     3   ar
     5     2     7    1
     6     3     4   ar
     7     3    30    1
     8     4     5   ar
     9     4     8    1
    10     5     6   ar
    11     5     9    1
    12     6    10    1
    13     8    11    1
    14     8    12    1
    15     8    28    1
    16    11    13    1
    17    11    26    1
    18    11    27    1
    19    13    14    1
    20    14    15    1
    21    14    16    1
    22    14    31    1
    23    16    17    1
    24    16    20    2
    25    17    18    1
    26    17    19    1
    27    17    32    1
    28    20    21    1
    29    20    22    1
    30    22    23    1
    31    22    24    1
    32    22    25    1
    33    32    33    1
    34    32    34    1
    35    13    35    1
    36    35    36    1
    37    13    37    1
    38    32    38    1
    39    38    39    1
    40    38    40    1
    41    38    41    1
@<TRIPOS>SUBSTRUCTURE
     1 1           1 GROUP             0 ****  ****    0  
@<TRIPOS>MOLECULE
Molecule Name_00001_00265
    41    41     1     0     0
SMALL
NO_CHARGES
****
Generated from the CSD

@<TRIPOS>ATOM
     1 C5      -5.5209   0.3971   0.4446   C.ar      1 1      0.0000
     2 C4      -5.1217  -0.1096  -0.7733   C.ar      1 1      0.0000
     3 C3      -3.7829  -0.3704  -1.0132   C.ar      1 1      0.0000
     4 C8      -2.8267  -0.1289  -0.0388   C.ar      1 1      0.0000
     5 C7      -3.2423   0.3820   1.1812   C.ar      1 1      0.0000
     6 C6      -4.5809   0.6431   1.4220   C.ar      1 1      0.0000
     7 H4      -5.8581  -0.3045  -1.5460   H         1 1      0.0000
     8 C9      -1.3671  -0.4103  -0.3018   C.3       1 1      0.0000
     9 H7      -2.5099   0.5796   1.9568   H         1 1      0.0000
    10 H6      -4.8903   1.0423   2.3823   H         1 1      0.0000
    11 C10     -0.4956   0.8431  -0.2511   C.3       1 1      0.0000
    12 H9A     -1.0031  -1.1284   0.4433   H         1 1      0.0000
    13 C11      0.9854   0.6171  -0.5092   C.3       1 1      0.0000
    14 C12      1.6165  -0.2807   0.5493   C.3       1 1      0.0000
    15 H12A     1.1511  -1.2730   0.5015   H         1 1      0.0000
    16 C13      3.0982  -0.4277   0.3804   C.2       1 1      0.0000
    17 C14      3.9810   0.3410   1.3171   C.3       1 1      0.0000
    18 H14B     4.9515  -0.1661   1.3822   H         1 1      0.0000
    19 H14A     3.5361   0.3345   2.3196   H         1 1      0.0000
    20 N        3.5962  -1.2195  -0.5483   N.pl3     1 1      0.0000
    21 HN       2.9253  -1.7742  -1.0799   H         1 1      0.0000
    22 C        5.0049  -1.4850  -0.8011   C.3       1 1      0.0000
    23 H1A      5.1259  -2.3804  -1.4072   H         1 1      0.0000
    24 H1C      5.4649  -0.6531  -1.3304   H         1 1      0.0000
    25 H1B      5.5443  -1.6319   0.1322   H         1 1      0.0000
    26 H10A    -0.8713   1.5551  -0.9963   H         1 1      0.0000
    27 H10B    -0.6080   1.3031   0.7385   H         1 1      0.0000
    28 H9B     -1.2665  -0.8752  -1.2903   H         1 1      0.0000
    29 H5      -6.5697   0.6013   0.6329   H         1 1      0.0000
    30 H3      -3.4787  -0.7687  -1.9755   H         1 1      0.0000
    31 H12B     1.4100   0.1372   1.5423   H         1 1      0.0000
    32 C15      4.2094   1.7786   0.8882   C.3       1 1      0.0000
    33 H15A     3.2421   2.2915   0.8191   H         1 1      0.0000
    34 H15C     4.6650   1.7884  -0.1097   H         1 1      0.0000
    35 OH       1.1465   0.0106  -1.7945   O.3       1 1      0.0000
    36 OH1      0.7601   0.5997  -2.4886   H         1 1      0.0000
    37 H22      1.5011   1.5898  -0.5047   H         1 1      0.0000
    38 C16      5.1015   2.5310   1.8482   C.3       1 1      0.0000
    39 H16C     6.0778   2.0561   1.9202   H         1 1      0.0000
    40 H16A     5.2473   3.5568   1.5160   H         1 1      0.0000
    41 H16B     4.6626   2.5562   2.8434   H         1 1      0.0000
@<TRIPOS>BOND
     1     1     2   ar
     2     1     6   ar
     3     1    29    1
     4     2     3   ar
     5     2     7    1
     6     3     4   ar
     7     3    30    1
     8     4     5   ar
     9     4     8    1
    10     5     6   ar
    11     5     9    1
    12     6    10    1
    13     8    11    1
    14     8    12    1
    15     8    28    1
    16    11    13    1
    17    11    26    1
    18    11    27    1
    19    13    14    1
    20    14    15    1
    21    14    16    1
    22    14    31    1
    23    16    17    1
    24    16    20    2
    25    17    18    1
    26    17    19    1
    27    17    32    1
    28    20    21    1
    29    20    22    1
    30    22    23    1
    31    22    24    1
    32    22    25    1
    33    32    33    1
    34    32    34    1
    35    13    35    1
    36    35    36    1
    37    13    37    1
    38    32    38    1
    39    38    39    1
    40    38    40    1
    41    38    41    1
@<TRIPOS>SUBSTRUCTURE
     1 1           1 GROUP             0 ****  ****    0  
@<TRIPOS>MOLECULE
Molecule Name_00001_00266
    41    41     1     0     0
SMALL
NO_CHARGES
****
Generated from the CSD

@<TRIPOS>ATOM
     1 C5      -5.6273   0.8456   0.1212   C.ar      1 1      0.0000
     2 C4      -5.0373   0.8403  -1.1243   C.ar      1 1      0.0000
     3 C3      -3.7653   0.3180  -1.2893   C.ar      1 1      0.0000
     4 C8      -3.0676  -0.2062  -0.2120   C.ar      1 1      0.0000
     5 C7      -3.6728  -0.1933   1.0352   C.ar      1 1      0.0000
     6 C6      -4.9448   0.3288   1.2012   C.ar      1 1      0.0000
     7 H4      -5.5705   1.2464  -1.9776   H         1 1      0.0000
     8 C9      -1.6798  -0.7725  -0.3917   C.3       1 1      0.0000
     9 H7      -3.1435  -0.5972   1.8918   H         1 1      0.0000
    10 H6      -5.4050   0.3310   2.1838   H         1 1      0.0000
    11 C10     -0.6137  -0.0077   0.3903   C.3       1 1      0.0000
    12 H9A     -1.6781  -1.8202  -0.0666   H         1 1      0.0000
    13 C11      0.8043  -0.5362   0.2453   C.3       1 1      0.0000
    14 C12      1.8406   0.5756   0.3662   C.3       1 1      0.0000
    15 H12A     1.8109   0.9841   1.3839   H         1 1      0.0000
    16 C13      3.2330   0.1092   0.0678   C.2       1 1      0.0000
    17 C14      4.1837   1.1046  -0.5264   C.3       1 1      0.0000
    18 H14B     3.6427   1.7123  -1.2622   H         1 1      0.0000
    19 H14A     4.9795   0.5702  -1.0595   H         1 1      0.0000
    20 N        3.6031  -1.1267   0.3380   N.pl3     1 1      0.0000
    21 HN       2.9217  -1.7087   0.8251   H         1 1      0.0000
    22 C        4.9246  -1.7029   0.1362   C.3       1 1      0.0000
    23 H1A      5.1546  -2.4235   0.9182   H         1 1      0.0000
    24 H1C      4.9796  -2.2143  -0.8225   H         1 1      0.0000
    25 H1B      5.6899  -0.9299   0.1518   H         1 1      0.0000
    26 H10A    -0.6278   1.0384   0.0605   H         1 1      0.0000
    27 H10B    -0.8833  -0.0278   1.4535   H         1 1      0.0000
    28 H9B     -1.4228  -0.7534  -1.4580   H         1 1      0.0000
    29 H5      -6.6239   1.2544   0.2508   H         1 1      0.0000
    30 H3      -3.3093   0.3190  -2.2738   H         1 1      0.0000
    31 H12B     1.5791   1.3854  -0.3261   H         1 1      0.0000
    32 C15      4.8120   2.0274   0.5014   C.3       1 1      0.0000
    33 H15A     5.3533   1.4257   1.2419   H         1 1      0.0000
    34 H15C     4.0189   2.5720   1.0285   H         1 1      0.0000
    35 OH       1.0435  -1.5124   1.2629   O.3       1 1      0.0000
    36 OH1      0.3891  -2.2486   1.1749   H         1 1      0.0000
    37 H22      0.9080  -1.0140  -0.7412   H         1 1      0.0000
    38 C16      5.7652   3.0202  -0.1226   C.3       1 1      0.0000
    39 H16C     5.2495   3.6468  -0.8473   H         1 1      0.0000
    40 H16A     6.1997   3.6672   0.6366   H         1 1      0.0000
    41 H16B     6.5761   2.5067  -0.6348   H         1 1      0.0000
@<TRIPOS>BOND
     1     1     2   ar
     2     1     6   ar
     3     1    29    1
     4     2     3   ar
     5     2     7    1
     6     3     4   ar
     7     3    30    1
     8     4     5   ar
     9     4     8    1
    10     5     6   ar
    11     5     9    1
    12     6    10    1
    13     8    11    1
    14     8    12    1
    15     8    28    1
    16    11    13    1
    17    11    26    1
    18    11    27    1
    19    13    14    1
    20    14    15    1
    21    14    16    1
    22    14    31    1
    23    16    17    1
    24    16    20    2
    25    17    18    1
    26    17    19    1
    27    17    32    1
    28    20    21    1
    29    20    22    1
    30    22    23    1
    31    22    24    1
    32    22    25    1
    33    32    33    1
    34    32    34    1
    35    13    35    1
    36    35    36    1
    37    13    37    1
    38    32    38    1
    39    38    39    1
    40    38    40    1
    41    38    41    1
@<TRIPOS>SUBSTRUCTURE
     1 1           1 GROUP             0 ****  ****    0  
@<TRIPOS>MOLECULE
Molecule Name_00001_00267
    41    41     1     0     0
SMALL
NO_CHARGES
****
Generated from the CSD

@<TRIPOS>ATOM
     1 C5      -5.5604   0.8102   0.2499   C.ar      1 1      0.0000
     2 C4      -4.8729   1.3388  -0.8212   C.ar      1 1      0.0000
     3 C3      -3.5800   0.9225  -1.0917   C.ar      1 1      0.0000
     4 C8      -2.9585  -0.0275  -0.2958   C.ar      1 1      0.0000
     5 C7      -3.6616  -0.5497   0.7790   C.ar      1 1      0.0000
     6 C6      -4.9545  -0.1341   1.0503   C.ar      1 1      0.0000
     7 H4      -5.3456   2.0827  -1.4539   H         1 1      0.0000
     8 C9      -1.5481  -0.4785  -0.5891   C.3       1 1      0.0000
     9 H7      -3.1930  -1.2931   1.4154   H         1 1      0.0000
    10 H6      -5.4916  -0.5529   1.8949   H         1 1      0.0000
    11 C10     -0.5659  -0.1445   0.5320   C.3       1 1      0.0000
    12 H9A     -1.5479  -1.5632  -0.7524   H         1 1      0.0000
    13 C11      0.8711  -0.5769   0.2887   C.3       1 1      0.0000
    14 C12      1.8683   0.3573   0.9651   C.3       1 1      0.0000
    15 H12A     1.7479   0.2832   2.0529   H         1 1      0.0000
    16 C13      3.2906   0.0478   0.6090   C.2       1 1      0.0000
    17 C14      4.2623   1.1893   0.5863   C.3       1 1      0.0000
    18 H14B     5.2729   0.7947   0.7489   H         1 1      0.0000
    19 H14A     4.0364   1.8722   1.4143   H         1 1      0.0000
    20 N        3.6665  -1.1877   0.3449   N.pl3     1 1      0.0000
    21 HN       2.9621  -1.9141   0.4731   H         1 1      0.0000
    22 C        5.0129  -1.6370   0.0220   C.3       1 1      0.0000
    23 H1A      5.0925  -2.7177   0.1193   H         1 1      0.0000
    24 H1C      5.2740  -1.3687  -0.9996   H         1 1      0.0000
    25 H1B      5.7426  -1.1820   0.6884   H         1 1      0.0000
    26 H10A    -0.5779   0.9410   0.6894   H         1 1      0.0000
    27 H10B    -0.9189  -0.6210   1.4549   H         1 1      0.0000
    28 H9B     -1.2072  -0.0013  -1.5162   H         1 1      0.0000
    29 H5      -6.5734   1.1358   0.4620   H         1 1      0.0000
    30 H3      -3.0469   1.3451  -1.9369   H         1 1      0.0000
    31 H12B     1.6442   1.3910   0.6743   H         1 1      0.0000
    32 C15      4.2466   1.9696  -0.7151   C.3       1 1      0.0000
    33 H15A     3.2377   2.3656  -0.8849   H         1 1      0.0000
    34 H15C     4.4836   1.2915  -1.5442   H         1 1      0.0000
    35 OH       1.0509  -1.9017   0.7972   O.3       1 1      0.0000
    36 OH1      0.4229  -2.5173   0.3448   H         1 1      0.0000
    37 H22      1.0643  -0.5798  -0.7952   H         1 1      0.0000
    38 C16      5.2339   3.1137  -0.7123   C.3       1 1      0.0000
    39 H16C     6.2481   2.7475  -0.5671   H         1 1      0.0000
    40 H16A     5.2005   3.6542  -1.6559   H         1 1      0.0000
    41 H16B     5.0090   3.8152   0.0883   H         1 1      0.0000
@<TRIPOS>BOND
     1     1     2   ar
     2     1     6   ar
     3     1    29    1
     4     2     3   ar
     5     2     7    1
     6     3     4   ar
     7     3    30    1
     8     4     5   ar
     9     4     8    1
    10     5     6   ar
    11     5     9    1
    12     6    10    1
    13     8    11    1
    14     8    12    1
    15     8    28    1
    16    11    13    1
    17    11    26    1
    18    11    27    1
    19    13    14    1
    20    14    15    1
    21    14    16    1
    22    14    31    1
    23    16    17    1
    24    16    20    2
    25    17    18    1
    26    17    19    1
    27    17    32    1
    28    20    21    1
    29    20    22    1
    30    22    23    1
    31    22    24    1
    32    22    25    1
    33    32    33    1
    34    32    34    1
    35    13    35    1
    36    35    36    1
    37    13    37    1
    38    32    38    1
    39    38    39    1
    40    38    40    1
    41    38    41    1
@<TRIPOS>SUBSTRUCTURE
     1 1           1 GROUP             0 ****  ****    0  
@<TRIPOS>MOLECULE
Molecule Name_00001_00268
    41    41     1     0     0
SMALL
NO_CHARGES
****
Generated from the CSD

@<TRIPOS>ATOM
     1 C5      -4.7019  -1.0190  -0.0627   C.ar      1 1      0.0000
     2 C4      -3.6669  -1.4596  -0.8590   C.ar      1 1      0.0000
     3 C3      -2.3835  -0.9782  -0.6611   C.ar      1 1      0.0000
     4 C8      -2.1184  -0.0513   0.3353   C.ar      1 1      0.0000
     5 C7      -3.1693   0.3839   1.1280   C.ar      1 1      0.0000
     6 C6      -4.4531  -0.0969   0.9309   C.ar      1 1      0.0000
     7 H4      -3.8579  -2.1852  -1.6427   H         1 1      0.0000
     8 C9      -0.7200   0.4756   0.5486   C.3       1 1      0.0000
     9 H7      -2.9838   1.1101   1.9124   H         1 1      0.0000
    10 H6      -5.2647   0.2532   1.5601   H         1 1      0.0000
    11 C10     -0.3952   1.6863  -0.3242   C.3       1 1      0.0000
    12 H9A     -0.6013   0.7537   1.6031   H         1 1      0.0000
    13 C11      0.9840   2.2898  -0.1129   C.3       1 1      0.0000
    14 C12      2.0756   1.4616  -0.7815   C.3       1 1      0.0000
    15 H12A     2.9956   2.0568  -0.8342   H         1 1      0.0000
    16 C13      2.3628   0.1821  -0.0562   C.2       1 1      0.0000
    17 C14      3.0208   0.2811   1.2873   C.3       1 1      0.0000
    18 H14B     2.7786  -0.6193   1.8653   H         1 1      0.0000
    19 H14A     2.6097   1.1422   1.8282   H         1 1      0.0000
    20 N        2.0291  -0.9803  -0.5805   N.pl3     1 1      0.0000
    21 HN       1.5036  -0.9505  -1.4540   H         1 1      0.0000
    22 C        2.2131  -2.2919   0.0236   C.3       1 1      0.0000
    23 H1A      1.5703  -3.0294  -0.4527   H         1 1      0.0000
    24 H1C      3.2441  -2.6232  -0.0812   H         1 1      0.0000
    25 H1B      1.9719  -2.2665   1.0841   H         1 1      0.0000
    26 H10A    -0.4838   1.3872  -1.3759   H         1 1      0.0000
    27 H10B    -1.1458   2.4629  -0.1321   H         1 1      0.0000
    28 H9B     -0.0012  -0.3242   0.3315   H         1 1      0.0000
    29 H5      -5.7074  -1.3961  -0.2173   H         1 1      0.0000
    30 H3      -1.5755  -1.3308  -1.2936   H         1 1      0.0000
    31 H12B     1.7695   1.2287  -1.8088   H         1 1      0.0000
    32 C15      4.5300   0.4209   1.2115   C.3       1 1      0.0000
    33 H15A     4.9259   0.5988   2.2189   H         1 1      0.0000
    34 H15C     4.7800   1.2932   0.5950   H         1 1      0.0000
    35 OH       1.0011   3.6130  -0.6558   O.3       1 1      0.0000
    36 OH1      0.3107   4.1624  -0.2090   H         1 1      0.0000
    37 H22      1.1886   2.3431   0.9676   H         1 1      0.0000
    38 C16      5.1931  -0.8053   0.6279   C.3       1 1      0.0000
    39 H16C     4.8348  -0.9939  -0.3819   H         1 1      0.0000
    40 H16A     6.2727  -0.6768   0.5860   H         1 1      0.0000
    41 H16B     4.9796  -1.6840   1.2330   H         1 1      0.0000
@<TRIPOS>BOND
     1     1     2   ar
     2     1     6   ar
     3     1    29    1
     4     2     3   ar
     5     2     7    1
     6     3     4   ar
     7     3    30    1
     8     4     5   ar
     9     4     8    1
    10     5     6   ar
    11     5     9    1
    12     6    10    1
    13     8    11    1
    14     8    12    1
    15     8    28    1
    16    11    13    1
    17    11    26    1
    18    11    27    1
    19    13    14    1
    20    14    15    1
    21    14    16    1
    22    14    31    1
    23    16    17    1
    24    16    20    2
    25    17    18    1
    26    17    19    1
    27    17    32    1
    28    20    21    1
    29    20    22    1
    30    22    23    1
    31    22    24    1
    32    22    25    1
    33    32    33    1
    34    32    34    1
    35    13    35    1
    36    35    36    1
    37    13    37    1
    38    32    38    1
    39    38    39    1
    40    38    40    1
    41    38    41    1
@<TRIPOS>SUBSTRUCTURE
     1 1           1 GROUP             0 ****  ****    0  
@<TRIPOS>MOLECULE
Molecule Name_00001_00269
    41    41     1     0     0
SMALL
NO_CHARGES
****
Generated from the CSD

@<TRIPOS>ATOM
     1 C5      -4.7561  -0.8326  -0.3019   C.ar      1 1      0.0000
     2 C4      -3.7545  -1.0885  -1.2135   C.ar      1 1      0.0000
     3 C3      -2.4456  -0.7404  -0.9247   C.ar      1 1      0.0000
     4 C8      -2.1212  -0.1331   0.2787   C.ar      1 1      0.0000
     5 C7      -3.1389   0.1195   1.1857   C.ar      1 1      0.0000
     6 C6      -4.4482  -0.2283   0.8978   C.ar      1 1      0.0000
     7 H4      -3.9921  -1.5637  -2.1595   H         1 1      0.0000
     8 C9      -0.6947   0.2492   0.5917   C.3       1 1      0.0000
     9 H7      -2.9068   0.5954   2.1327   H         1 1      0.0000
    10 H6      -5.2333  -0.0245   1.6184   H         1 1      0.0000
    11 C10     -0.3169   1.6349   0.0718   C.3       1 1      0.0000
    12 H9A     -0.5498   0.2242   1.6788   H         1 1      0.0000
    13 C11      1.0941   2.0924   0.4046   C.3       1 1      0.0000
    14 C12      2.1340   1.4237  -0.4877   C.3       1 1      0.0000
    15 H12A     3.0832   1.9667  -0.4010   H         1 1      0.0000
    16 C13      2.3614  -0.0159  -0.1393   C.2       1 1      0.0000
    17 C14      3.0289  -0.3138   1.1698   C.3       1 1      0.0000
    18 H14B     2.7129  -1.3084   1.5078   H         1 1      0.0000
    19 H14A     2.6933   0.4128   1.9198   H         1 1      0.0000
    20 N        1.9695  -0.9769  -0.9518   N.pl3     1 1      0.0000
    21 HN       1.4426  -0.6882  -1.7759   H         1 1      0.0000
    22 C        2.0918  -2.4099  -0.7270   C.3       1 1      0.0000
    23 H1A      1.3873  -2.9592  -1.3481   H         1 1      0.0000
    24 H1C      3.0955  -2.7535  -0.9684   H         1 1      0.0000
    25 H1B      1.8907  -2.6567   0.3132   H         1 1      0.0000
    26 H10A    -0.4325   1.6375  -1.0191   H         1 1      0.0000
    27 H10B    -1.0238   2.3645   0.4857   H         1 1      0.0000
    28 H9B     -0.0213  -0.4944   0.1480   H         1 1      0.0000
    29 H5      -5.7816  -1.1055  -0.5277   H         1 1      0.0000
    30 H3      -1.6643  -0.9455  -1.6491   H         1 1      0.0000
    31 H12B     1.8055   1.4907  -1.5322   H         1 1      0.0000
    32 C15      4.5443  -0.2821   1.0957   C.3       1 1      0.0000
    33 H15A     4.8802  -0.9653   0.3058   H         1 1      0.0000
    34 H15C     4.9586  -0.6404   2.0462   H         1 1      0.0000
    35 OH       1.1753   3.5105   0.2368   O.3       1 1      0.0000
    36 OH1      0.5192   3.9516   0.8310   H         1 1      0.0000
    37 H22      1.3121   1.8426   1.4545   H         1 1      0.0000
    38 C16      5.0780   1.1030   0.8127   C.3       1 1      0.0000
    39 H16C     4.4959   1.8558   1.3402   H         1 1      0.0000
    40 H16A     6.1142   1.1900   1.1329   H         1 1      0.0000
    41 H16B     5.0326   1.3239  -0.2517   H         1 1      0.0000
@<TRIPOS>BOND
     1     1     2   ar
     2     1     6   ar
     3     1    29    1
     4     2     3   ar
     5     2     7    1
     6     3     4   ar
     7     3    30    1
     8     4     5   ar
     9     4     8    1
    10     5     6   ar
    11     5     9    1
    12     6    10    1
    13     8    11    1
    14     8    12    1
    15     8    28    1
    16    11    13    1
    17    11    26    1
    18    11    27    1
    19    13    14    1
    20    14    15    1
    21    14    16    1
    22    14    31    1
    23    16    17    1
    24    16    20    2
    25    17    18    1
    26    17    19    1
    27    17    32    1
    28    20    21    1
    29    20    22    1
    30    22    23    1
    31    22    24    1
    32    22    25    1
    33    32    33    1
    34    32    34    1
    35    13    35    1
    36    35    36    1
    37    13    37    1
    38    32    38    1
    39    38    39    1
    40    38    40    1
    41    38    41    1
@<TRIPOS>SUBSTRUCTURE
     1 1           1 GROUP             0 ****  ****    0  
@<TRIPOS>MOLECULE
Molecule Name_00001_00270
    41    41     1     0     0
SMALL
NO_CHARGES
****
Generated from the CSD

@<TRIPOS>ATOM
     1 C5      -5.5636  -0.1435   0.4906   C.ar      1 1      0.0000
     2 C4      -4.6228  -0.1682   1.4974   C.ar      1 1      0.0000
     3 C3      -3.3128   0.1960   1.2344   C.ar      1 1      0.0000
     4 C8      -2.9269   0.5902  -0.0376   C.ar      1 1      0.0000
     5 C7      -3.8835   0.6091  -1.0409   C.ar      1 1      0.0000
     6 C6      -5.1938   0.2451  -0.7789   C.ar      1 1      0.0000
     7 H4      -4.9091  -0.4738   2.4983   H         1 1      0.0000
     8 C9      -1.4982   0.9840  -0.3246   C.3       1 1      0.0000
     9 H7      -3.6022   0.9130  -2.0438   H         1 1      0.0000
    10 H6      -5.9308   0.2659  -1.5749   H         1 1      0.0000
    11 C10     -0.4924  -0.1120   0.0222   C.3       1 1      0.0000
    12 H9A     -1.4040   1.2309  -1.3893   H         1 1      0.0000
    13 C11      0.9637   0.2319  -0.2474   C.3       1 1      0.0000
    14 C12      1.8988  -0.9072   0.1436   C.3       1 1      0.0000
    15 H12A     1.6472  -1.7964  -0.4474   H         1 1      0.0000
    16 C13      3.3442  -0.5731  -0.0681   C.2       1 1      0.0000
    17 C14      3.7812   0.8294   0.2312   C.3       1 1      0.0000
    18 H14B     3.0314   1.5243  -0.1668   H         1 1      0.0000
    19 H14A     4.7270   1.0311  -0.2862   H         1 1      0.0000
    20 N        4.1946  -1.4900  -0.4848   N.pl3     1 1      0.0000
    21 HN       3.8314  -2.4387  -0.5755   H         1 1      0.0000
    22 C        5.6242  -1.3176  -0.6978   C.3       1 1      0.0000
    23 H1A      6.1644  -2.2271  -0.4431   H         1 1      0.0000
    24 H1C      5.8328  -1.0799  -1.7388   H         1 1      0.0000
    25 H1B      6.0122  -0.5092  -0.0818   H         1 1      0.0000
    26 H10A    -0.5987  -0.3537   1.0869   H         1 1      0.0000
    27 H10B    -0.7477  -1.0107  -0.5528   H         1 1      0.0000
    28 H9B     -1.2552   1.8863   0.2500   H         1 1      0.0000
    29 H5      -6.5901  -0.4285   0.6963   H         1 1      0.0000
    30 H3      -2.5794   0.1726   2.0336   H         1 1      0.0000
    31 H12B     1.7403  -1.1533   1.2008   H         1 1      0.0000
    32 C15      3.9615   1.1024   1.7130   C.3       1 1      0.0000
    33 H15A     4.7090   0.4092   2.1181   H         1 1      0.0000
    34 H15C     3.0137   0.9127   2.2318   H         1 1      0.0000
    35 OH       1.1252   0.5134  -1.6404   O.3       1 1      0.0000
    36 OH1      0.5420   1.2707  -1.8943   H         1 1      0.0000
    37 H22      1.2321   1.1283   0.3329   H         1 1      0.0000
    38 C16      4.4018   2.5217   1.9876   C.3       1 1      0.0000
    39 H16C     3.6670   3.2323   1.6151   H         1 1      0.0000
    40 H16A     4.5229   2.6881   3.0560   H         1 1      0.0000
    41 H16B     5.3526   2.7313   1.5020   H         1 1      0.0000
@<TRIPOS>BOND
     1     1     2   ar
     2     1     6   ar
     3     1    29    1
     4     2     3   ar
     5     2     7    1
     6     3     4   ar
     7     3    30    1
     8     4     5   ar
     9     4     8    1
    10     5     6   ar
    11     5     9    1
    12     6    10    1
    13     8    11    1
    14     8    12    1
    15     8    28    1
    16    11    13    1
    17    11    26    1
    18    11    27    1
    19    13    14    1
    20    14    15    1
    21    14    16    1
    22    14    31    1
    23    16    17    1
    24    16    20    2
    25    17    18    1
    26    17    19    1
    27    17    32    1
    28    20    21    1
    29    20    22    1
    30    22    23    1
    31    22    24    1
    32    22    25    1
    33    32    33    1
    34    32    34    1
    35    13    35    1
    36    35    36    1
    37    13    37    1
    38    32    38    1
    39    38    39    1
    40    38    40    1
    41    38    41    1
@<TRIPOS>SUBSTRUCTURE
     1 1           1 GROUP             0 ****  ****    0  
@<TRIPOS>MOLECULE
Molecule Name_00001_00271
    41    41     1     0     0
SMALL
NO_CHARGES
****
Generated from the CSD

@<TRIPOS>ATOM
     1 C5      -5.5660  -0.1272   0.1847   C.ar      1 1      0.0000
     2 C4      -4.6912  -0.7031   1.0805   C.ar      1 1      0.0000
     3 C3      -3.3550  -0.3388   1.0800   C.ar      1 1      0.0000
     4 C8      -2.8768   0.6059   0.1850   C.ar      1 1      0.0000
     5 C7      -3.7678   1.1761  -0.7112   C.ar      1 1      0.0000
     6 C6      -5.1041   0.8125  -0.7115   C.ar      1 1      0.0000
     7 H4      -5.0501  -1.4435   1.7877   H         1 1      0.0000
     8 C9      -1.4196   1.0003   0.1826   C.3       1 1      0.0000
     9 H7      -3.4138   1.9163  -1.4211   H         1 1      0.0000
    10 H6      -5.7890   1.2684  -1.4188   H         1 1      0.0000
    11 C10     -0.4776  -0.1844  -0.0226   C.3       1 1      0.0000
    12 H9A     -1.2505   1.7332  -0.6159   H         1 1      0.0000
    13 C11      1.0039   0.1564  -0.0335   C.3       1 1      0.0000
    14 C12      1.8710  -1.0831  -0.2242   C.3       1 1      0.0000
    15 H12A     1.7074  -1.4835  -1.2324   H         1 1      0.0000
    16 C13      3.3322  -0.8059  -0.0403   C.2       1 1      0.0000
    17 C14      3.7298   0.0799   1.1021   C.3       1 1      0.0000
    18 H14B     4.7299  -0.2140   1.4440   H         1 1      0.0000
    19 H14A     3.0358  -0.0745   1.9373   H         1 1      0.0000
    20 N        4.2271  -1.3400  -0.8472   N.pl3     1 1      0.0000
    21 HN       3.8769  -2.0022  -1.5393   H         1 1      0.0000
    22 C        5.6726  -1.1880  -0.7655   C.3       1 1      0.0000
    23 H1A      6.1757  -1.9976  -1.2900   H         1 1      0.0000
    24 H1C      5.9869  -0.2475  -1.2131   H         1 1      0.0000
    25 H1B      6.0044  -1.1974   0.2705   H         1 1      0.0000
    26 H10A    -0.6586  -0.9120   0.7782   H         1 1      0.0000
    27 H10B    -0.7290  -0.6655  -0.9759   H         1 1      0.0000
    28 H9B     -1.1805   1.4854   1.1370   H         1 1      0.0000
    29 H5      -6.6129  -0.4121   0.1850   H         1 1      0.0000
    30 H3      -2.6741  -0.7984   1.7888   H         1 1      0.0000
    31 H12B     1.5601  -1.8514   0.4945   H         1 1      0.0000
    32 C15      3.7503   1.5544   0.7439   C.3       1 1      0.0000
    33 H15A     2.7428   1.8650   0.4409   H         1 1      0.0000
    34 H15C     4.4191   1.7075  -0.1121   H         1 1      0.0000
    35 OH       1.2618   1.0768  -1.0975   O.3       1 1      0.0000
    36 OH1      0.7232   1.8954  -0.9641   H         1 1      0.0000
    37 H22      1.2679   0.6320   0.9237   H         1 1      0.0000
    38 C16      4.2107   2.4199   1.8940   C.3       1 1      0.0000
    39 H16C     5.2181   2.1480   2.2021   H         1 1      0.0000
    40 H16A     4.2152   3.4698   1.6088   H         1 1      0.0000
    41 H16B     3.5512   2.3044   2.7516   H         1 1      0.0000
@<TRIPOS>BOND
     1     1     2   ar
     2     1     6   ar
     3     1    29    1
     4     2     3   ar
     5     2     7    1
     6     3     4   ar
     7     3    30    1
     8     4     5   ar
     9     4     8    1
    10     5     6   ar
    11     5     9    1
    12     6    10    1
    13     8    11    1
    14     8    12    1
    15     8    28    1
    16    11    13    1
    17    11    26    1
    18    11    27    1
    19    13    14    1
    20    14    15    1
    21    14    16    1
    22    14    31    1
    23    16    17    1
    24    16    20    2
    25    17    18    1
    26    17    19    1
    27    17    32    1
    28    20    21    1
    29    20    22    1
    30    22    23    1
    31    22    24    1
    32    22    25    1
    33    32    33    1
    34    32    34    1
    35    13    35    1
    36    35    36    1
    37    13    37    1
    38    32    38    1
    39    38    39    1
    40    38    40    1
    41    38    41    1
@<TRIPOS>SUBSTRUCTURE
     1 1           1 GROUP             0 ****  ****    0  
@<TRIPOS>MOLECULE
Molecule Name_00001_00272
    41    41     1     0     0
SMALL
NO_CHARGES
****
Generated from the CSD

@<TRIPOS>ATOM
     1 C5      -4.7159  -1.0199   0.6481   C.ar      1 1      0.0000
     2 C4      -3.7633  -0.8416   1.6279   C.ar      1 1      0.0000
     3 C3      -2.6540  -0.0493   1.3837   C.ar      1 1      0.0000
     4 C8      -2.4834   0.5752   0.1577   C.ar      1 1      0.0000
     5 C7      -3.4489   0.3860  -0.8191   C.ar      1 1      0.0000
     6 C6      -4.5585  -0.4061  -0.5758   C.ar      1 1      0.0000
     7 H4      -3.8827  -1.3231   2.5929   H         1 1      0.0000
     8 C9      -1.2724   1.4361  -0.1092   C.3       1 1      0.0000
     9 H7      -3.3337   0.8645  -1.7860   H         1 1      0.0000
    10 H6      -5.3056  -0.5437  -1.3505   H         1 1      0.0000
    11 C10     -0.0730   0.6420  -0.6228   C.3       1 1      0.0000
    12 H9A     -1.5363   2.2023  -0.8487   H         1 1      0.0000
    13 C11      1.1756   1.4609  -0.9085   C.3       1 1      0.0000
    14 C12      2.3273   0.5897  -1.3978   C.3       1 1      0.0000
    15 H12A     3.1607   1.2349  -1.7019   H         1 1      0.0000
    16 C13      2.8108  -0.3749  -0.3579   C.2       1 1      0.0000
    17 C14      2.7981   0.0830   1.0697   C.3       1 1      0.0000
    18 H14B     2.8167  -0.7985   1.7223   H         1 1      0.0000
    19 H14A     1.8635   0.6219   1.2677   H         1 1      0.0000
    20 N        3.2131  -1.5842  -0.6943   N.pl3     1 1      0.0000
    21 HN       3.1020  -1.8437  -1.6744   H         1 1      0.0000
    22 C        3.6710  -2.6309   0.2078   C.3       1 1      0.0000
    23 H1A      3.6507  -3.6007  -0.2849   H         1 1      0.0000
    24 H1C      4.6906  -2.4385   0.5351   H         1 1      0.0000
    25 H1B      3.0370  -2.6856   1.0901   H         1 1      0.0000
    26 H10A     0.1788  -0.1231   0.1218   H         1 1      0.0000
    27 H10B    -0.3679   0.1276  -1.5457   H         1 1      0.0000
    28 H9B     -0.9897   1.9502   0.8177   H         1 1      0.0000
    29 H5      -5.5853  -1.6403   0.8391   H         1 1      0.0000
    30 H3      -1.9094   0.0844   2.1614   H         1 1      0.0000
    31 H12B     2.0005   0.0279  -2.2816   H         1 1      0.0000
    32 C15      3.9695   0.9792   1.4266   C.3       1 1      0.0000
    33 H15A     3.9581   1.8623   0.7759   H         1 1      0.0000
    34 H15C     4.9058   0.4388   1.2405   H         1 1      0.0000
    35 OH       0.8720   2.4398  -1.9062   O.3       1 1      0.0000
    36 OH1      0.1445   3.0264  -1.5828   H         1 1      0.0000
    37 H22      1.4849   1.9743   0.0151   H         1 1      0.0000
    38 C16      3.9334   1.4265   2.8696   C.3       1 1      0.0000
    39 H16C     3.9657   0.5701   3.5398   H         1 1      0.0000
    40 H16A     4.7835   2.0666   3.0964   H         1 1      0.0000
    41 H16B     3.0234   1.9854   3.0775   H         1 1      0.0000
@<TRIPOS>BOND
     1     1     2   ar
     2     1     6   ar
     3     1    29    1
     4     2     3   ar
     5     2     7    1
     6     3     4   ar
     7     3    30    1
     8     4     5   ar
     9     4     8    1
    10     5     6   ar
    11     5     9    1
    12     6    10    1
    13     8    11    1
    14     8    12    1
    15     8    28    1
    16    11    13    1
    17    11    26    1
    18    11    27    1
    19    13    14    1
    20    14    15    1
    21    14    16    1
    22    14    31    1
    23    16    17    1
    24    16    20    2
    25    17    18    1
    26    17    19    1
    27    17    32    1
    28    20    21    1
    29    20    22    1
    30    22    23    1
    31    22    24    1
    32    22    25    1
    33    32    33    1
    34    32    34    1
    35    13    35    1
    36    35    36    1
    37    13    37    1
    38    32    38    1
    39    38    39    1
    40    38    40    1
    41    38    41    1
@<TRIPOS>SUBSTRUCTURE
     1 1           1 GROUP             0 ****  ****    0  
@<TRIPOS>MOLECULE
Molecule Name_00001_00273
    41    41     1     0     0
SMALL
NO_CHARGES
****
Generated from the CSD

@<TRIPOS>ATOM
     1 C5      -4.5231  -0.8262   0.9694   C.ar      1 1      0.0000
     2 C4      -3.5054  -0.5623   1.8604   C.ar      1 1      0.0000
     3 C3      -2.3985   0.1653   1.4564   C.ar      1 1      0.0000
     4 C8      -2.2952   0.6387   0.1574   C.ar      1 1      0.0000
     5 C7      -3.3258   0.3646  -0.7285   C.ar      1 1      0.0000
     6 C6      -4.4332  -0.3628  -0.3254   C.ar      1 1      0.0000
     7 H4      -3.5716  -0.9253   2.8808   H         1 1      0.0000
     8 C9      -1.0869   1.4289  -0.2835   C.3       1 1      0.0000
     9 H7      -3.2640   0.7245  -1.7502   H         1 1      0.0000
    10 H6      -5.2317  -0.5684  -1.0306   H         1 1      0.0000
    11 C10      0.0603   0.5476  -0.7740   C.3       1 1      0.0000
    12 H9A     -1.3826   2.1113  -1.0898   H         1 1      0.0000
    13 C11      1.3041   1.2928  -1.2308   C.3       1 1      0.0000
    14 C12      2.4146   0.3385  -1.6560   C.3       1 1      0.0000
    15 H12A     3.1705   0.8974  -2.2214   H         1 1      0.0000
    16 C13      3.0760  -0.3399  -0.4950   C.2       1 1      0.0000
    17 C14      3.3780   0.4945   0.7135   C.3       1 1      0.0000
    18 H14B     3.5928   1.5200   0.3886   H         1 1      0.0000
    19 H14A     4.2795   0.1070   1.2037   H         1 1      0.0000
    20 N        3.3610  -1.6261  -0.5380   N.pl3     1 1      0.0000
    21 HN       3.0383  -2.1356  -1.3604   H         1 1      0.0000
    22 C        3.9659  -2.4189   0.5225   C.3       1 1      0.0000
    23 H1A      3.5656  -3.4305   0.5238   H         1 1      0.0000
    24 H1C      5.0440  -2.4814   0.3897   H         1 1      0.0000
    25 H1B      3.7701  -1.9755   1.4964   H         1 1      0.0000
    26 H10A     0.3443  -0.1329   0.0382   H         1 1      0.0000
    27 H10B    -0.3045  -0.0618  -1.6100   H         1 1      0.0000
    28 H9B     -0.7341   2.0388   0.5574   H         1 1      0.0000
    29 H5      -5.3907  -1.3960   1.2856   H         1 1      0.0000
    30 H3      -1.6023   0.3673   2.1652   H         1 1      0.0000
    31 H12B     1.9949  -0.4242  -2.3235   H         1 1      0.0000
    32 C15      2.2444   0.5292   1.7217   C.3       1 1      0.0000
    33 H15A     1.9844  -0.4978   2.0062   H         1 1      0.0000
    34 H15C     1.3607   0.9806   1.2541   H         1 1      0.0000
    35 OH       0.9624   2.1357  -2.3348   O.3       1 1      0.0000
    36 OH1      0.2590   2.7734  -2.0583   H         1 1      0.0000
    37 H22      1.6699   1.9185  -0.4020   H         1 1      0.0000
    38 C16      2.6025   1.3119   2.9639   C.3       1 1      0.0000
    39 H16C     2.8445   2.3427   2.7138   H         1 1      0.0000
    40 H16A     1.7727   1.3196   3.6675   H         1 1      0.0000
    41 H16B     3.4646   0.8725   3.4614   H         1 1      0.0000
@<TRIPOS>BOND
     1     1     2   ar
     2     1     6   ar
     3     1    29    1
     4     2     3   ar
     5     2     7    1
     6     3     4   ar
     7     3    30    1
     8     4     5   ar
     9     4     8    1
    10     5     6   ar
    11     5     9    1
    12     6    10    1
    13     8    11    1
    14     8    12    1
    15     8    28    1
    16    11    13    1
    17    11    26    1
    18    11    27    1
    19    13    14    1
    20    14    15    1
    21    14    16    1
    22    14    31    1
    23    16    17    1
    24    16    20    2
    25    17    18    1
    26    17    19    1
    27    17    32    1
    28    20    21    1
    29    20    22    1
    30    22    23    1
    31    22    24    1
    32    22    25    1
    33    32    33    1
    34    32    34    1
    35    13    35    1
    36    35    36    1
    37    13    37    1
    38    32    38    1
    39    38    39    1
    40    38    40    1
    41    38    41    1
@<TRIPOS>SUBSTRUCTURE
     1 1           1 GROUP             0 ****  ****    0  
@<TRIPOS>MOLECULE
Molecule Name_00001_00274
    41    41     1     0     0
SMALL
NO_CHARGES
****
Generated from the CSD

@<TRIPOS>ATOM
     1 C5      -5.5003   0.7341  -0.0449   C.ar      1 1      0.0000
     2 C4      -5.1294  -0.4311  -0.6807   C.ar      1 1      0.0000
     3 C3      -3.8413  -0.9202  -0.5407   C.ar      1 1      0.0000
     4 C8      -2.9083  -0.2516   0.2369   C.ar      1 1      0.0000
     5 C7      -3.2949   0.9199   0.8696   C.ar      1 1      0.0000
     6 C6      -4.5827   1.4098   0.7303   C.ar      1 1      0.0000
     7 H4      -5.8481  -0.9664  -1.2923   H         1 1      0.0000
     8 C9      -1.5035  -0.7833   0.3866   C.3       1 1      0.0000
     9 H7      -2.5797   1.4595   1.4816   H         1 1      0.0000
    10 H6      -4.8700   2.3277   1.2324   H         1 1      0.0000
    11 C10     -0.4416   0.1604  -0.1744   C.3       1 1      0.0000
    12 H9A     -1.3001  -0.9572   1.4505   H         1 1      0.0000
    13 C11      0.9932  -0.3264  -0.0497   C.3       1 1      0.0000
    14 C12      1.9841   0.6647  -0.6502   C.3       1 1      0.0000
    15 H12A     1.9010   1.6210  -0.1192   H         1 1      0.0000
    16 C13      3.4026   0.1871  -0.5770   C.2       1 1      0.0000
    17 C14      4.4696   1.2183  -0.3631   C.3       1 1      0.0000
    18 H14B     4.1968   2.1268  -0.9142   H         1 1      0.0000
    19 H14A     5.4157   0.8506  -0.7788   H         1 1      0.0000
    20 N        3.6889  -1.0954  -0.6799   N.pl3     1 1      0.0000
    21 HN       2.8963  -1.7351  -0.7314   H         1 1      0.0000
    22 C        5.0094  -1.7016  -0.5915   C.3       1 1      0.0000
    23 H1A      4.9543  -2.6778  -0.1142   H         1 1      0.0000
    24 H1C      5.4403  -1.8326  -1.5819   H         1 1      0.0000
    25 H1B      5.6834  -1.0771  -0.0091   H         1 1      0.0000
    26 H10A    -0.6574   0.3304  -1.2365   H         1 1      0.0000
    27 H10B    -0.5263   1.1238   0.3433   H         1 1      0.0000
    28 H9B     -1.4313  -1.7488  -0.1291   H         1 1      0.0000
    29 H5      -6.5094   1.1174  -0.1542   H         1 1      0.0000
    30 H3      -3.5589  -1.8380  -1.0457   H         1 1      0.0000
    31 H12B     1.7208   0.8422  -1.7003   H         1 1      0.0000
    32 C15      4.6785   1.5771   1.0965   C.3       1 1      0.0000
    33 H15A     5.5515   2.2357   1.1837   H         1 1      0.0000
    34 H15C     4.8910   0.6632   1.6648   H         1 1      0.0000
    35 OH       1.3014  -0.5169   1.3339   O.3       1 1      0.0000
    36 OH1      0.6789  -1.1796   1.7229   H         1 1      0.0000
    37 H22      1.0903  -1.2894  -0.5744   H         1 1      0.0000
    38 C16      3.4757   2.2667   1.6977   C.3       1 1      0.0000
    39 H16C     2.6204   1.5948   1.7265   H         1 1      0.0000
    40 H16A     3.6857   2.5918   2.7145   H         1 1      0.0000
    41 H16B     3.2000   3.1414   1.1123   H         1 1      0.0000
@<TRIPOS>BOND
     1     1     2   ar
     2     1     6   ar
     3     1    29    1
     4     2     3   ar
     5     2     7    1
     6     3     4   ar
     7     3    30    1
     8     4     5   ar
     9     4     8    1
    10     5     6   ar
    11     5     9    1
    12     6    10    1
    13     8    11    1
    14     8    12    1
    15     8    28    1
    16    11    13    1
    17    11    26    1
    18    11    27    1
    19    13    14    1
    20    14    15    1
    21    14    16    1
    22    14    31    1
    23    16    17    1
    24    16    20    2
    25    17    18    1
    26    17    19    1
    27    17    32    1
    28    20    21    1
    29    20    22    1
    30    22    23    1
    31    22    24    1
    32    22    25    1
    33    32    33    1
    34    32    34    1
    35    13    35    1
    36    35    36    1
    37    13    37    1
    38    32    38    1
    39    38    39    1
    40    38    40    1
    41    38    41    1
@<TRIPOS>SUBSTRUCTURE
     1 1           1 GROUP             0 ****  ****    0  
@<TRIPOS>MOLECULE
Molecule Name_00001_00275
    41    41     1     0     0
SMALL
NO_CHARGES
****
Generated from the CSD

@<TRIPOS>ATOM
     1 C5      -4.6310   0.4580  -1.2020   C.ar      1 1      0.0000
     2 C4      -3.4991   0.0126  -1.8499   C.ar      1 1      0.0000
     3 C3      -2.3855  -0.3700  -1.1209   C.ar      1 1      0.0000
     4 C8      -2.3894  -0.3131   0.2643   C.ar      1 1      0.0000
     5 C7      -3.5344   0.1381   0.9027   C.ar      1 1      0.0000
     6 C6      -4.6486   0.5210   0.1747   C.ar      1 1      0.0000
     7 H4      -3.4805  -0.0384  -2.9335   H         1 1      0.0000
     8 C9      -1.1742  -0.7271   1.0584   C.3       1 1      0.0000
     9 H7      -3.5579   0.1920   1.9861   H         1 1      0.0000
    10 H6      -5.5372   0.8713   0.6892   H         1 1      0.0000
    11 C10     -0.1727   0.4086   1.2588   C.3       1 1      0.0000
    12 H9A     -1.4985  -1.0944   2.0399   H         1 1      0.0000
    13 C11      1.0718   0.0463   2.0531   C.3       1 1      0.0000
    14 C12      1.9596  -0.9389   1.3008   C.3       1 1      0.0000
    15 H12A     1.4062  -1.8731   1.1446   H         1 1      0.0000
    16 C13      2.4173  -0.4148  -0.0264   C.2       1 1      0.0000
    17 C14      3.8496   0.0119  -0.1451   C.3       1 1      0.0000
    18 H14B     4.1553  -0.0695  -1.1955   H         1 1      0.0000
    19 H14A     4.4795  -0.6719   0.4369   H         1 1      0.0000
    20 N        1.5884  -0.3521  -1.0493   N.pl3     1 1      0.0000
    21 HN       0.6595  -0.7481  -0.9061   H         1 1      0.0000
    22 C        1.9030   0.0979  -2.3974   C.3       1 1      0.0000
    23 H1A      1.1548  -0.2525  -3.1054   H         1 1      0.0000
    24 H1C      1.9309   1.1846  -2.4442   H         1 1      0.0000
    25 H1B      2.8728  -0.2794  -2.7146   H         1 1      0.0000
    26 H10A     0.1407   0.7706   0.2719   H         1 1      0.0000
    27 H10B    -0.6827   1.2333   1.7720   H         1 1      0.0000
    28 H9B     -0.6755  -1.5555   0.5401   H         1 1      0.0000
    29 H5      -5.5038   0.7576  -1.7727   H         1 1      0.0000
    30 H3      -1.4990  -0.7187  -1.6404   H         1 1      0.0000
    31 H12B     2.8382  -1.1704   1.9156   H         1 1      0.0000
    32 C15      4.0973   1.4328   0.3266   C.3       1 1      0.0000
    33 H15A     3.8415   1.5084   1.3906   H         1 1      0.0000
    34 H15C     3.4387   2.1150  -0.2249   H         1 1      0.0000
    35 OH       1.8164   1.2379   2.3207   O.3       1 1      0.0000
    36 OH1      1.2534   1.8720   2.8297   H         1 1      0.0000
    37 H22      0.7661  -0.4074   3.0085   H         1 1      0.0000
    38 C16      5.5328   1.8625   0.1304   C.3       1 1      0.0000
    39 H16C     5.8083   1.8183  -0.9212   H         1 1      0.0000
    40 H16A     5.6806   2.8832   0.4768   H         1 1      0.0000
    41 H16B     6.2085   1.2150   0.6853   H         1 1      0.0000
@<TRIPOS>BOND
     1     1     2   ar
     2     1     6   ar
     3     1    29    1
     4     2     3   ar
     5     2     7    1
     6     3     4   ar
     7     3    30    1
     8     4     5   ar
     9     4     8    1
    10     5     6   ar
    11     5     9    1
    12     6    10    1
    13     8    11    1
    14     8    12    1
    15     8    28    1
    16    11    13    1
    17    11    26    1
    18    11    27    1
    19    13    14    1
    20    14    15    1
    21    14    16    1
    22    14    31    1
    23    16    17    1
    24    16    20    2
    25    17    18    1
    26    17    19    1
    27    17    32    1
    28    20    21    1
    29    20    22    1
    30    22    23    1
    31    22    24    1
    32    22    25    1
    33    32    33    1
    34    32    34    1
    35    13    35    1
    36    35    36    1
    37    13    37    1
    38    32    38    1
    39    38    39    1
    40    38    40    1
    41    38    41    1
@<TRIPOS>SUBSTRUCTURE
     1 1           1 GROUP             0 ****  ****    0  
@<TRIPOS>MOLECULE
Molecule Name_00001_00276
    41    41     1     0     0
SMALL
NO_CHARGES
****
Generated from the CSD

@<TRIPOS>ATOM
     1 C5      -5.4790   0.7810   0.0249   C.ar      1 1      0.0000
     2 C4      -5.0390  -0.2727  -0.7468   C.ar      1 1      0.0000
     3 C3      -3.7434  -0.7422  -0.6092   C.ar      1 1      0.0000
     4 C8      -2.8719  -0.1654   0.3018   C.ar      1 1      0.0000
     5 C7      -3.3277   0.8946   1.0706   C.ar      1 1      0.0000
     6 C6      -4.6231   1.3649   0.9336   C.ar      1 1      0.0000
     7 H4      -5.7091  -0.7353  -1.4639   H         1 1      0.0000
     8 C9      -1.4588  -0.6754   0.4492   C.3       1 1      0.0000
     9 H7      -2.6612   1.3613   1.7884   H         1 1      0.0000
    10 H6      -4.9648   2.1949   1.5432   H         1 1      0.0000
    11 C10     -0.4809  -0.0244  -0.5270   C.3       1 1      0.0000
    12 H9A     -1.1176  -0.4874   1.4748   H         1 1      0.0000
    13 C11      0.9585  -0.5020  -0.4219   C.3       1 1      0.0000
    14 C12      1.9418   0.6623  -0.3740   C.3       1 1      0.0000
    15 H12A     1.7616   1.2465   0.5368   H         1 1      0.0000
    16 C13      3.3727   0.2176  -0.3936   C.2       1 1      0.0000
    17 C14      4.4284   1.2814  -0.3555   C.3       1 1      0.0000
    18 H14B     4.0922   2.1330  -0.9599   H         1 1      0.0000
    19 H14A     5.3478   0.8943  -0.8115   H         1 1      0.0000
    20 N        3.6807  -1.0636  -0.4251   N.pl3     1 1      0.0000
    21 HN       2.9029  -1.7196  -0.3562   H         1 1      0.0000
    22 C        5.0186  -1.6372  -0.4110   C.3       1 1      0.0000
    23 H1A      5.0306  -2.5744   0.1415   H         1 1      0.0000
    24 H1C      5.3630  -1.8365  -1.4236   H         1 1      0.0000
    25 H1B      5.7258  -0.9574   0.0593   H         1 1      0.0000
    26 H10A    -0.8342  -0.2149  -1.5479   H         1 1      0.0000
    27 H10B    -0.4984   1.0601  -0.3630   H         1 1      0.0000
    28 H9B     -1.4535  -1.7607   0.2894   H         1 1      0.0000
    29 H5      -6.4940   1.1490  -0.0825   H         1 1      0.0000
    30 H3      -3.4063  -1.5719  -1.2218   H         1 1      0.0000
    31 H12B     1.7603   1.3195  -1.2334   H         1 1      0.0000
    32 C15      4.7415   1.7713   1.0463   C.3       1 1      0.0000
    33 H15A     5.6115   2.4383   1.0083   H         1 1      0.0000
    34 H15C     5.0052   0.9132   1.6768   H         1 1      0.0000
    35 OH       1.1031  -1.2864   0.7654   O.3       1 1      0.0000
    36 OH1      0.6861  -2.1727   0.6286   H         1 1      0.0000
    37 H22      1.1913  -1.1291  -1.2964   H         1 1      0.0000
    38 C16      3.5795   2.5078   1.6716   C.3       1 1      0.0000
    39 H16C     2.8631   1.8079   2.0967   H         1 1      0.0000
    40 H16A     3.9231   3.1659   2.4669   H         1 1      0.0000
    41 H16B     3.0627   3.1134   0.9301   H         1 1      0.0000
@<TRIPOS>BOND
     1     1     2   ar
     2     1     6   ar
     3     1    29    1
     4     2     3   ar
     5     2     7    1
     6     3     4   ar
     7     3    30    1
     8     4     5   ar
     9     4     8    1
    10     5     6   ar
    11     5     9    1
    12     6    10    1
    13     8    11    1
    14     8    12    1
    15     8    28    1
    16    11    13    1
    17    11    26    1
    18    11    27    1
    19    13    14    1
    20    14    15    1
    21    14    16    1
    22    14    31    1
    23    16    17    1
    24    16    20    2
    25    17    18    1
    26    17    19    1
    27    17    32    1
    28    20    21    1
    29    20    22    1
    30    22    23    1
    31    22    24    1
    32    22    25    1
    33    32    33    1
    34    32    34    1
    35    13    35    1
    36    35    36    1
    37    13    37    1
    38    32    38    1
    39    38    39    1
    40    38    40    1
    41    38    41    1
@<TRIPOS>SUBSTRUCTURE
     1 1           1 GROUP             0 ****  ****    0  
@<TRIPOS>MOLECULE
Molecule Name_00001_00277
    41    41     1     0     0
SMALL
NO_CHARGES
****
Generated from the CSD

@<TRIPOS>ATOM
     1 C5      -5.5969   0.6530  -0.1110   C.ar      1 1      0.0000
     2 C4      -5.1141  -0.4911  -0.7087   C.ar      1 1      0.0000
     3 C3      -3.8036  -0.8862  -0.4977   C.ar      1 1      0.0000
     4 C8      -2.9598  -0.1434   0.3137   C.ar      1 1      0.0000
     5 C7      -3.4585   1.0058   0.9076   C.ar      1 1      0.0000
     6 C6      -4.7689   1.4017   0.6972   C.ar      1 1      0.0000
     7 H4      -5.7621  -1.0835  -1.3461   H         1 1      0.0000
     8 C9      -1.5305  -0.5727   0.5409   C.3       1 1      0.0000
     9 H7      -2.8143   1.6023   1.5451   H         1 1      0.0000
    10 H6      -5.1444   2.3034   1.1697   H         1 1      0.0000
    11 C10     -0.5695  -0.0462  -0.5232   C.3       1 1      0.0000
    12 H9A     -1.2036  -0.2154   1.5252   H         1 1      0.0000
    13 C11      0.8853  -0.4491  -0.3430   C.3       1 1      0.0000
    14 C12      1.8261   0.7435  -0.4753   C.3       1 1      0.0000
    15 H12A     1.6172   1.4562   0.3321   H         1 1      0.0000
    16 C13      3.2720   0.3538  -0.4205   C.2       1 1      0.0000
    17 C14      4.2886   1.4508  -0.5241   C.3       1 1      0.0000
    18 H14B     3.9476   2.1774  -1.2718   H         1 1      0.0000
    19 H14A     5.2378   1.0311  -0.8792   H         1 1      0.0000
    20 N        3.6258  -0.9069  -0.2688   N.pl3     1 1      0.0000
    21 HN       2.8709  -1.5751  -0.1146   H         1 1      0.0000
    22 C        4.9828  -1.4229  -0.1634   C.3       1 1      0.0000
    23 H1A      5.0252  -2.2571   0.5338   H         1 1      0.0000
    24 H1C      5.3388  -1.7714  -1.1306   H         1 1      0.0000
    25 H1B      5.6636  -0.6512   0.1896   H         1 1      0.0000
    26 H10A    -0.9084  -0.4057  -1.5027   H         1 1      0.0000
    27 H10B    -0.6268   1.0492  -0.5299   H         1 1      0.0000
    28 H9B     -1.4853  -1.6687   0.5518   H         1 1      0.0000
    29 H5      -6.6236   0.9628  -0.2758   H         1 1      0.0000
    30 H3      -3.4328  -1.7881  -0.9733   H         1 1      0.0000
    31 H12B     1.6288   1.2509  -1.4276   H         1 1      0.0000
    32 C15      4.5297   2.1761   0.7869   C.3       1 1      0.0000
    33 H15A     3.5763   2.5683   1.1617   H         1 1      0.0000
    34 H15C     5.1955   3.0296   0.6088   H         1 1      0.0000
    35 OH       1.0492  -1.0337   0.9521   O.3       1 1      0.0000
    36 OH1      0.6351  -1.9317   0.9640   H         1 1      0.0000
    37 H22      1.1466  -1.1956  -1.1089   H         1 1      0.0000
    38 C16      5.1435   1.2790   1.8367   C.3       1 1      0.0000
    39 H16C     6.1030   0.8919   1.5002   H         1 1      0.0000
    40 H16A     5.3046   1.8248   2.7641   H         1 1      0.0000
    41 H16B     4.4928   0.4335   2.0498   H         1 1      0.0000
@<TRIPOS>BOND
     1     1     2   ar
     2     1     6   ar
     3     1    29    1
     4     2     3   ar
     5     2     7    1
     6     3     4   ar
     7     3    30    1
     8     4     5   ar
     9     4     8    1
    10     5     6   ar
    11     5     9    1
    12     6    10    1
    13     8    11    1
    14     8    12    1
    15     8    28    1
    16    11    13    1
    17    11    26    1
    18    11    27    1
    19    13    14    1
    20    14    15    1
    21    14    16    1
    22    14    31    1
    23    16    17    1
    24    16    20    2
    25    17    18    1
    26    17    19    1
    27    17    32    1
    28    20    21    1
    29    20    22    1
    30    22    23    1
    31    22    24    1
    32    22    25    1
    33    32    33    1
    34    32    34    1
    35    13    35    1
    36    35    36    1
    37    13    37    1
    38    32    38    1
    39    38    39    1
    40    38    40    1
    41    38    41    1
@<TRIPOS>SUBSTRUCTURE
     1 1           1 GROUP             0 ****  ****    0  
@<TRIPOS>MOLECULE
Molecule Name_00001_00278
    41    41     1     0     0
SMALL
NO_CHARGES
****
Generated from the CSD

@<TRIPOS>ATOM
     1 C5      -5.5972   0.7865  -0.1151   C.ar      1 1      0.0000
     2 C4      -5.0183   0.0983  -1.1594   C.ar      1 1      0.0000
     3 C3      -3.7361  -0.4093  -1.0322   C.ar      1 1      0.0000
     4 C8      -3.0168  -0.2360   0.1403   C.ar      1 1      0.0000
     5 C7      -3.6110   0.4594   1.1821   C.ar      1 1      0.0000
     6 C6      -4.8932   0.9673   1.0559   C.ar      1 1      0.0000
     7 H4      -5.5685  -0.0462  -2.0834   H         1 1      0.0000
     8 C9      -1.6179  -0.7866   0.2774   C.3       1 1      0.0000
     9 H7      -3.0648   0.6075   2.1078   H         1 1      0.0000
    10 H6      -5.3446   1.5087   1.8807   H         1 1      0.0000
    11 C10     -0.5434   0.1707  -0.2345   C.3       1 1      0.0000
    12 H9A     -1.4245  -1.0080   1.3343   H         1 1      0.0000
    13 C11      0.8860  -0.3342  -0.1203   C.3       1 1      0.0000
    14 C12      1.8094   0.7085   0.5001   C.3       1 1      0.0000
    15 H12A     1.4857   0.9070   1.5293   H         1 1      0.0000
    16 C13      3.2454   0.2804   0.5141   C.2       1 1      0.0000
    17 C14      4.2426   1.2231   1.1179   C.3       1 1      0.0000
    18 H14B     5.1132   0.6467   1.4544   H         1 1      0.0000
    19 H14A     3.7999   1.7000   2.0010   H         1 1      0.0000
    20 N        3.6052  -0.8905   0.0273   N.pl3     1 1      0.0000
    21 HN       2.8519  -1.5058  -0.2794   H         1 1      0.0000
    22 C        4.9495  -1.4485   0.0079   C.3       1 1      0.0000
    23 H1A      4.9171  -2.5280  -0.1237   H         1 1      0.0000
    24 H1C      5.5307  -1.0251  -0.8086   H         1 1      0.0000
    25 H1B      5.4699  -1.2360   0.9393   H         1 1      0.0000
    26 H10A    -0.7494   0.3883  -1.2898   H         1 1      0.0000
    27 H10B    -0.6236   1.1116   0.3237   H         1 1      0.0000
    28 H9B     -1.5503  -1.7296  -0.2790   H         1 1      0.0000
    29 H5      -6.6018   1.1841  -0.2143   H         1 1      0.0000
    30 H3      -3.2889  -0.9491  -1.8603   H         1 1      0.0000
    31 H12B     1.7215   1.6452  -0.0639   H         1 1      0.0000
    32 C15      4.7121   2.3010   0.1586   C.3       1 1      0.0000
    33 H15A     5.3484   3.0121   0.6998   H         1 1      0.0000
    34 H15C     3.8413   2.8514  -0.2185   H         1 1      0.0000
    35 OH       0.8998  -1.5132   0.6894   O.3       1 1      0.0000
    36 OH1      0.5641  -2.2798   0.1625   H         1 1      0.0000
    37 H22      1.2573  -0.5856  -1.1258   H         1 1      0.0000
    38 C16      5.4850   1.7347  -1.0101   C.3       1 1      0.0000
    39 H16C     4.8700   1.0409  -1.5793   H         1 1      0.0000
    40 H16A     5.8085   2.5289  -1.6797   H         1 1      0.0000
    41 H16B     6.3684   1.2009  -0.6659   H         1 1      0.0000
@<TRIPOS>BOND
     1     1     2   ar
     2     1     6   ar
     3     1    29    1
     4     2     3   ar
     5     2     7    1
     6     3     4   ar
     7     3    30    1
     8     4     5   ar
     9     4     8    1
    10     5     6   ar
    11     5     9    1
    12     6    10    1
    13     8    11    1
    14     8    12    1
    15     8    28    1
    16    11    13    1
    17    11    26    1
    18    11    27    1
    19    13    14    1
    20    14    15    1
    21    14    16    1
    22    14    31    1
    23    16    17    1
    24    16    20    2
    25    17    18    1
    26    17    19    1
    27    17    32    1
    28    20    21    1
    29    20    22    1
    30    22    23    1
    31    22    24    1
    32    22    25    1
    33    32    33    1
    34    32    34    1
    35    13    35    1
    36    35    36    1
    37    13    37    1
    38    32    38    1
    39    38    39    1
    40    38    40    1
    41    38    41    1
@<TRIPOS>SUBSTRUCTURE
     1 1           1 GROUP             0 ****  ****    0  
@<TRIPOS>MOLECULE
Molecule Name_00001_00279
    41    41     1     0     0
SMALL
NO_CHARGES
****
Generated from the CSD

@<TRIPOS>ATOM
     1 C5      -5.4768   0.8938   0.0852   C.ar      1 1      0.0000
     2 C4      -4.9518   0.3187  -1.0519   C.ar      1 1      0.0000
     3 C3      -3.6840  -0.2380  -1.0281   C.ar      1 1      0.0000
     4 C8      -2.9255  -0.2278   0.1324   C.ar      1 1      0.0000
     5 C7      -3.4658   0.3551   1.2685   C.ar      1 1      0.0000
     6 C6      -4.7335   0.9122   1.2456   C.ar      1 1      0.0000
     7 H4      -5.5331   0.3022  -1.9679   H         1 1      0.0000
     8 C9      -1.5423  -0.8319   0.1572   C.3       1 1      0.0000
     9 H7      -2.8882   0.3751   2.1867   H         1 1      0.0000
    10 H6      -5.1424   1.3640   2.1433   H         1 1      0.0000
    11 C10     -0.4519   0.1476  -0.2725   C.3       1 1      0.0000
    12 H9A     -1.3257  -1.1839   1.1733   H         1 1      0.0000
    13 C11      0.9626  -0.4093  -0.2660   C.3       1 1      0.0000
    14 C12      1.9378   0.5239   0.4432   C.3       1 1      0.0000
    15 H12A     1.6500   0.6085   1.4984   H         1 1      0.0000
    16 C13      3.3584   0.0539   0.3608   C.2       1 1      0.0000
    17 C14      4.4013   0.8787   1.0534   C.3       1 1      0.0000
    18 H14B     5.2477   0.2308   1.3125   H         1 1      0.0000
    19 H14A     3.9871   1.2726   1.9896   H         1 1      0.0000
    20 N        3.6662  -1.0539  -0.2837   N.pl3     1 1      0.0000
    21 HN       2.8853  -1.6005  -0.6463   H         1 1      0.0000
    22 C        4.9900  -1.6455  -0.4135   C.3       1 1      0.0000
    23 H1A      4.9174  -2.7009  -0.6673   H         1 1      0.0000
    24 H1C      5.5596  -1.1474  -1.1953   H         1 1      0.0000
    25 H1B      5.5455  -1.5581   0.5178   H         1 1      0.0000
    26 H10A    -0.6812   0.4960  -1.2871   H         1 1      0.0000
    27 H10B    -0.4845   1.0169   0.3959   H         1 1      0.0000
    28 H9B     -1.5223  -1.7031  -0.5092   H         1 1      0.0000
    29 H5      -6.4701   1.3299   0.0670   H         1 1      0.0000
    30 H3      -3.2793  -0.6878  -1.9287   H         1 1      0.0000
    31 H12B     1.8658   1.5233  -0.0035   H         1 1      0.0000
    32 C15      4.9113   2.0357   0.2143   C.3       1 1      0.0000
    33 H15A     5.2765   1.6504  -0.7456   H         1 1      0.0000
    34 H15C     5.7573   2.5079   0.7288   H         1 1      0.0000
    35 OH       0.9608  -1.6766   0.3970   O.3       1 1      0.0000
    36 OH1      0.6225  -2.3717  -0.2198   H         1 1      0.0000
    37 H22      1.2959  -0.5493  -1.3059   H         1 1      0.0000
    38 C16      3.8445   3.0748  -0.0425   C.3       1 1      0.0000
    39 H16C     3.2168   3.2085   0.8361   H         1 1      0.0000
    40 H16A     4.2928   4.0353  -0.2881   H         1 1      0.0000
    41 H16B     3.2071   2.7762  -0.8721   H         1 1      0.0000
@<TRIPOS>BOND
     1     1     2   ar
     2     1     6   ar
     3     1    29    1
     4     2     3   ar
     5     2     7    1
     6     3     4   ar
     7     3    30    1
     8     4     5   ar
     9     4     8    1
    10     5     6   ar
    11     5     9    1
    12     6    10    1
    13     8    11    1
    14     8    12    1
    15     8    28    1
    16    11    13    1
    17    11    26    1
    18    11    27    1
    19    13    14    1
    20    14    15    1
    21    14    16    1
    22    14    31    1
    23    16    17    1
    24    16    20    2
    25    17    18    1
    26    17    19    1
    27    17    32    1
    28    20    21    1
    29    20    22    1
    30    22    23    1
    31    22    24    1
    32    22    25    1
    33    32    33    1
    34    32    34    1
    35    13    35    1
    36    35    36    1
    37    13    37    1
    38    32    38    1
    39    38    39    1
    40    38    40    1
    41    38    41    1
@<TRIPOS>SUBSTRUCTURE
     1 1           1 GROUP             0 ****  ****    0  
@<TRIPOS>MOLECULE
Molecule Name_00001_00280
    41    41     1     0     0
SMALL
NO_CHARGES
****
Generated from the CSD

@<TRIPOS>ATOM
     1 C5      -4.8605  -0.8098  -1.0636   C.ar      1 1      0.0000
     2 C4      -3.6617  -1.4892  -1.0945   C.ar      1 1      0.0000
     3 C3      -2.5989  -1.0603  -0.3170   C.ar      1 1      0.0000
     4 C8      -2.7211   0.0521   0.5014   C.ar      1 1      0.0000
     5 C7      -3.9322   0.7265   0.5215   C.ar      1 1      0.0000
     6 C6      -4.9957   0.2984  -0.2555   C.ar      1 1      0.0000
     7 H4      -3.5504  -2.3620  -1.7294   H         1 1      0.0000
     8 C9      -1.5613   0.5212   1.3463   C.3       1 1      0.0000
     9 H7      -4.0484   1.6004   1.1540   H         1 1      0.0000
    10 H6      -5.9373   0.8367  -0.2282   H         1 1      0.0000
    11 C10     -0.3072   0.8244   0.5287   C.3       1 1      0.0000
    12 H9A     -1.8601   1.4258   1.8902   H         1 1      0.0000
    13 C11      0.8930   1.3013   1.3306   C.3       1 1      0.0000
    14 C12      2.0988   1.5778   0.4394   C.3       1 1      0.0000
    15 H12A     2.8690   2.0917   1.0277   H         1 1      0.0000
    16 C13      2.6854   0.3313  -0.1503   C.2       1 1      0.0000
    17 C14      3.9192  -0.2249   0.4948   C.3       1 1      0.0000
    18 H14B     3.9780  -1.2981   0.2753   H         1 1      0.0000
    19 H14A     3.8393  -0.1135   1.5830   H         1 1      0.0000
    20 N        2.1200  -0.2560  -1.1860   N.pl3     1 1      0.0000
    21 HN       1.2341   0.1372  -1.5035   H         1 1      0.0000
    22 C        2.5568  -1.4834  -1.8354   C.3       1 1      0.0000
    23 H1A      1.7768  -1.8745  -2.4853   H         1 1      0.0000
    24 H1C      3.4436  -1.3050  -2.4399   H         1 1      0.0000
    25 H1B      2.7977  -2.2463  -1.0981   H         1 1      0.0000
    26 H10A    -0.0207  -0.0850  -0.0138   H         1 1      0.0000
    27 H10B    -0.5552   1.5934  -0.2133   H         1 1      0.0000
    28 H9B     -1.3256  -0.2518   2.0881   H         1 1      0.0000
    29 H5      -5.6934  -1.1457  -1.6724   H         1 1      0.0000
    30 H3      -1.6591  -1.6016  -0.3488   H         1 1      0.0000
    31 H12B     1.7963   2.2494  -0.3736   H         1 1      0.0000
    32 C15      5.1991   0.4404   0.0235   C.3       1 1      0.0000
    33 H15A     5.1462   1.5148   0.2383   H         1 1      0.0000
    34 H15C     5.2878   0.3206  -1.0633   H         1 1      0.0000
    35 OH       0.5407   2.4998   2.0273   O.3       1 1      0.0000
    36 OH1     -0.2146   2.3166   2.6388   H         1 1      0.0000
    37 H22      1.1627   0.5262   2.0646   H         1 1      0.0000
    38 C16      6.4270  -0.1378   0.6881   C.3       1 1      0.0000
    39 H16C     6.5172  -1.2007   0.4737   H         1 1      0.0000
    40 H16A     7.3278   0.3575   0.3318   H         1 1      0.0000
    41 H16B     6.3761  -0.0130   1.7677   H         1 1      0.0000
@<TRIPOS>BOND
     1     1     2   ar
     2     1     6   ar
     3     1    29    1
     4     2     3   ar
     5     2     7    1
     6     3     4   ar
     7     3    30    1
     8     4     5   ar
     9     4     8    1
    10     5     6   ar
    11     5     9    1
    12     6    10    1
    13     8    11    1
    14     8    12    1
    15     8    28    1
    16    11    13    1
    17    11    26    1
    18    11    27    1
    19    13    14    1
    20    14    15    1
    21    14    16    1
    22    14    31    1
    23    16    17    1
    24    16    20    2
    25    17    18    1
    26    17    19    1
    27    17    32    1
    28    20    21    1
    29    20    22    1
    30    22    23    1
    31    22    24    1
    32    22    25    1
    33    32    33    1
    34    32    34    1
    35    13    35    1
    36    35    36    1
    37    13    37    1
    38    32    38    1
    39    38    39    1
    40    38    40    1
    41    38    41    1
@<TRIPOS>SUBSTRUCTURE
     1 1           1 GROUP             0 ****  ****    0  
@<TRIPOS>MOLECULE
Molecule Name_00001_00281
    41    41     1     0     0
SMALL
NO_CHARGES
****
Generated from the CSD

@<TRIPOS>ATOM
     1 C5      -3.7884   0.5319   1.4509   C.ar      1 1      0.0000
     2 C4      -2.4723   0.6402   1.8452   C.ar      1 1      0.0000
     3 C3      -1.4623   0.1328   1.0450   C.ar      1 1      0.0000
     4 C8      -1.7549  -0.4884  -0.1595   C.ar      1 1      0.0000
     5 C7      -3.0832  -0.5914  -0.5430   C.ar      1 1      0.0000
     6 C6      -4.0939  -0.0842   0.2566   C.ar      1 1      0.0000
     7 H4      -2.2268   1.1242   2.7848   H         1 1      0.0000
     8 C9      -0.6540  -1.0443  -1.0299   C.3       1 1      0.0000
     9 H7      -3.3340  -1.0753  -1.4812   H         1 1      0.0000
    10 H6      -5.1286  -0.1722  -0.0580   H         1 1      0.0000
    11 C10     -0.1762  -0.0595  -2.0954   C.3       1 1      0.0000
    12 H9A      0.1959  -1.3228  -0.3946   H         1 1      0.0000
    13 C11      0.6283   1.1213  -1.5763   C.3       1 1      0.0000
    14 C12      2.0835   0.7477  -1.3167   C.3       1 1      0.0000
    15 H12A     2.6749   1.6651  -1.2062   H         1 1      0.0000
    16 C13      2.2585  -0.0966  -0.0911   C.2       1 1      0.0000
    17 C14      2.0723   0.5685   1.2396   C.3       1 1      0.0000
    18 H14B     1.7973  -0.1939   1.9789   H         1 1      0.0000
    19 H14A     1.2411   1.2810   1.1740   H         1 1      0.0000
    20 N        2.5476  -1.3787  -0.1907   N.pl3     1 1      0.0000
    21 HN       2.5655  -1.7685  -1.1330   H         1 1      0.0000
    22 C        2.7094  -2.3217   0.9065   C.3       1 1      0.0000
    23 H1A      2.5953  -3.3451   0.5554   H         1 1      0.0000
    24 H1C      3.6960  -2.2254   1.3549   H         1 1      0.0000
    25 H1B      1.9668  -2.1444   1.6814   H         1 1      0.0000
    26 H10A     0.4408  -0.6064  -2.8189   H         1 1      0.0000
    27 H10B    -1.0540   0.3272  -2.6278   H         1 1      0.0000
    28 H9B     -1.0152  -1.9555  -1.5224   H         1 1      0.0000
    29 H5      -4.5799   0.9296   2.0775   H         1 1      0.0000
    30 H3      -0.4293   0.2225   1.3645   H         1 1      0.0000
    31 H12B     2.4732   0.2021  -2.1849   H         1 1      0.0000
    32 C15      3.3100   1.2980   1.7283   C.3       1 1      0.0000
    33 H15A     3.5919   2.0611   0.9923   H         1 1      0.0000
    34 H15C     4.1405   0.5855   1.8061   H         1 1      0.0000
    35 OH       0.5804   2.1768  -2.5404   O.3       1 1      0.0000
    36 OH1     -0.3602   2.4402  -2.6955   H         1 1      0.0000
    37 H22      0.1779   1.4743  -0.6357   H         1 1      0.0000
    38 C16      3.0963   1.9591   3.0703   C.3       1 1      0.0000
    39 H16C     2.8362   1.2215   3.8265   H         1 1      0.0000
    40 H16A     3.9984   2.4735   3.3948   H         1 1      0.0000
    41 H16B     2.2908   2.6885   3.0170   H         1 1      0.0000
@<TRIPOS>BOND
     1     1     2   ar
     2     1     6   ar
     3     1    29    1
     4     2     3   ar
     5     2     7    1
     6     3     4   ar
     7     3    30    1
     8     4     5   ar
     9     4     8    1
    10     5     6   ar
    11     5     9    1
    12     6    10    1
    13     8    11    1
    14     8    12    1
    15     8    28    1
    16    11    13    1
    17    11    26    1
    18    11    27    1
    19    13    14    1
    20    14    15    1
    21    14    16    1
    22    14    31    1
    23    16    17    1
    24    16    20    2
    25    17    18    1
    26    17    19    1
    27    17    32    1
    28    20    21    1
    29    20    22    1
    30    22    23    1
    31    22    24    1
    32    22    25    1
    33    32    33    1
    34    32    34    1
    35    13    35    1
    36    35    36    1
    37    13    37    1
    38    32    38    1
    39    38    39    1
    40    38    40    1
    41    38    41    1
@<TRIPOS>SUBSTRUCTURE
     1 1           1 GROUP             0 ****  ****    0  
@<TRIPOS>MOLECULE
Molecule Name_00001_00282
    41    41     1     0     0
SMALL
NO_CHARGES
****
Generated from the CSD

@<TRIPOS>ATOM
     1 C5      -3.8253  -1.6357   0.0729   C.ar      1 1      0.0000
     2 C4      -2.8703  -1.4931   1.0563   C.ar      1 1      0.0000
     3 C3      -2.1520  -0.3138   1.1624   C.ar      1 1      0.0000
     4 C8      -2.3797   0.7376   0.2880   C.ar      1 1      0.0000
     5 C7      -3.3424   0.5798  -0.6970   C.ar      1 1      0.0000
     6 C6      -4.0613  -0.5991  -0.8041   C.ar      1 1      0.0000
     7 H4      -2.6807  -2.3066   1.7488   H         1 1      0.0000
     8 C9      -1.5942   2.0217   0.4020   C.3       1 1      0.0000
     9 H7      -3.5351   1.3898  -1.3927   H         1 1      0.0000
    10 H6      -4.8119  -0.7069  -1.5801   H         1 1      0.0000
    11 C10     -0.0840   1.8116   0.3108   C.3       1 1      0.0000
    12 H9A     -1.9086   2.7036  -0.3977   H         1 1      0.0000
    13 C11      0.4376   1.4265  -1.0642   C.3       1 1      0.0000
    14 C12      1.9533   1.2606  -1.0713   C.3       1 1      0.0000
    15 H12A     2.4166   2.1828  -0.6994   H         1 1      0.0000
    16 C13      2.4172   0.1086  -0.2329   C.2       1 1      0.0000
    17 C14      3.8859   0.0065   0.0508   C.3       1 1      0.0000
    18 H14B     4.4394   0.2785  -0.8564   H         1 1      0.0000
    19 H14A     4.1357  -1.0340   0.2915   H         1 1      0.0000
    20 N        1.5562  -0.7665   0.2472   N.pl3     1 1      0.0000
    21 HN       0.5692  -0.5698   0.0825   H         1 1      0.0000
    22 C        1.8589  -1.9065   1.1003   C.3       1 1      0.0000
    23 H1A      1.0536  -2.0809   1.8109   H         1 1      0.0000
    24 H1C      1.9878  -2.8088   0.5063   H         1 1      0.0000
    25 H1B      2.7753  -1.7370   1.6615   H         1 1      0.0000
    26 H10A     0.4128   2.7390   0.6214   H         1 1      0.0000
    27 H10B     0.1996   1.0252   1.0211   H         1 1      0.0000
    28 H9B     -1.8308   2.4999   1.3605   H         1 1      0.0000
    29 H5      -4.3885  -2.5594  -0.0104   H         1 1      0.0000
    30 H3      -1.4018  -0.2115   1.9396   H         1 1      0.0000
    31 H12B     2.2919   1.1100  -2.1038   H         1 1      0.0000
    32 C15      4.3445   0.8998   1.1886   C.3       1 1      0.0000
    33 H15A     3.7931   0.6343   2.0990   H         1 1      0.0000
    34 H15C     4.1064   1.9427   0.9456   H         1 1      0.0000
    35 OH      -0.1703   0.1952  -1.4645   O.3       1 1      0.0000
    36 OH1     -1.0065   0.3845  -1.9573   H         1 1      0.0000
    37 H22      0.1620   2.2129  -1.7837   H         1 1      0.0000
    38 C16      5.8272   0.7784   1.4541   C.3       1 1      0.0000
    39 H16C     6.4009   1.0573   0.5727   H         1 1      0.0000
    40 H16A     6.1268   1.4287   2.2733   H         1 1      0.0000
    41 H16B     6.0891  -0.2437   1.7195   H         1 1      0.0000
@<TRIPOS>BOND
     1     1     2   ar
     2     1     6   ar
     3     1    29    1
     4     2     3   ar
     5     2     7    1
     6     3     4   ar
     7     3    30    1
     8     4     5   ar
     9     4     8    1
    10     5     6   ar
    11     5     9    1
    12     6    10    1
    13     8    11    1
    14     8    12    1
    15     8    28    1
    16    11    13    1
    17    11    26    1
    18    11    27    1
    19    13    14    1
    20    14    15    1
    21    14    16    1
    22    14    31    1
    23    16    17    1
    24    16    20    2
    25    17    18    1
    26    17    19    1
    27    17    32    1
    28    20    21    1
    29    20    22    1
    30    22    23    1
    31    22    24    1
    32    22    25    1
    33    32    33    1
    34    32    34    1
    35    13    35    1
    36    35    36    1
    37    13    37    1
    38    32    38    1
    39    38    39    1
    40    38    40    1
    41    38    41    1
@<TRIPOS>SUBSTRUCTURE
     1 1           1 GROUP             0 ****  ****    0  
@<TRIPOS>MOLECULE
Molecule Name_00001_00283
    41    41     1     0     0
SMALL
NO_CHARGES
****
Generated from the CSD

@<TRIPOS>ATOM
     1 C5      -3.8730   0.8502  -1.3674   C.ar      1 1      0.0000
     2 C4      -2.9202  -0.0628  -1.7648   C.ar      1 1      0.0000
     3 C3      -2.1957  -0.7685  -0.8186   C.ar      1 1      0.0000
     4 C8      -2.4149  -0.5710   0.5360   C.ar      1 1      0.0000
     5 C7      -3.3755   0.3514   0.9213   C.ar      1 1      0.0000
     6 C6      -4.1005   1.0575  -0.0240   C.ar      1 1      0.0000
     7 H4      -2.7373  -0.2292  -2.8212   H         1 1      0.0000
     8 C9      -1.6227  -1.3380   1.5670   C.3       1 1      0.0000
     9 H7      -3.5616   0.5221   1.9765   H         1 1      0.0000
    10 H6      -4.8494   1.7756   0.2937   H         1 1      0.0000
    11 C10     -0.1134  -1.1501   1.4258   C.3       1 1      0.0000
    12 H9A     -1.9309  -1.0116   2.5679   H         1 1      0.0000
    13 C11      0.4103   0.2240   1.8114   C.3       1 1      0.0000
    14 C12      1.9250   0.3171   1.6641   C.3       1 1      0.0000
    15 H12A     2.3922  -0.4813   2.2538   H         1 1      0.0000
    16 C13      2.3801   0.2030   0.2409   C.2       1 1      0.0000
    17 C14      3.8472   0.0147  -0.0034   C.3       1 1      0.0000
    18 H14B     3.9824  -0.4742  -0.9761   H         1 1      0.0000
    19 H14A     4.2580  -0.6539   0.7630   H         1 1      0.0000
    20 N        1.5128   0.2497  -0.7506   N.pl3     1 1      0.0000
    21 HN       0.5273   0.2873  -0.4907   H         1 1      0.0000
    22 C        1.8066   0.1167  -2.1701   C.3       1 1      0.0000
    23 H1A      0.9085  -0.1418  -2.7272   H         1 1      0.0000
    24 H1C      2.1976   1.0492  -2.5717   H         1 1      0.0000
    25 H1B      2.5470  -0.6619  -2.3405   H         1 1      0.0000
    26 H10A     0.3876  -1.8988   2.0518   H         1 1      0.0000
    27 H10B     0.1637  -1.3457   0.3826   H         1 1      0.0000
    28 H9B     -1.8595  -2.4053   1.4763   H         1 1      0.0000
    29 H5      -4.4410   1.4031  -2.1083   H         1 1      0.0000
    30 H3      -1.4474  -1.4846  -1.1416   H         1 1      0.0000
    31 H12B     2.2659   1.2766   2.0722   H         1 1      0.0000
    32 C15      4.6318   1.3136   0.0032   C.3       1 1      0.0000
    33 H15A     4.4995   1.8090   0.9730   H         1 1      0.0000
    34 H15C     4.2308   1.9802  -0.7703   H         1 1      0.0000
    35 OH      -0.2032   1.2077   0.9737   O.3       1 1      0.0000
    36 OH1     -1.0171   1.5559   1.4145   H         1 1      0.0000
    37 H22      0.1411   0.4274   2.8594   H         1 1      0.0000
    38 C16      6.1066   1.0966  -0.2450   C.3       1 1      0.0000
    39 H16C     6.2697   0.6253  -1.2120   H         1 1      0.0000
    40 H16A     6.6429   2.0432  -0.2346   H         1 1      0.0000
    41 H16B     6.5365   0.4551   0.5215   H         1 1      0.0000
@<TRIPOS>BOND
     1     1     2   ar
     2     1     6   ar
     3     1    29    1
     4     2     3   ar
     5     2     7    1
     6     3     4   ar
     7     3    30    1
     8     4     5   ar
     9     4     8    1
    10     5     6   ar
    11     5     9    1
    12     6    10    1
    13     8    11    1
    14     8    12    1
    15     8    28    1
    16    11    13    1
    17    11    26    1
    18    11    27    1
    19    13    14    1
    20    14    15    1
    21    14    16    1
    22    14    31    1
    23    16    17    1
    24    16    20    2
    25    17    18    1
    26    17    19    1
    27    17    32    1
    28    20    21    1
    29    20    22    1
    30    22    23    1
    31    22    24    1
    32    22    25    1
    33    32    33    1
    34    32    34    1
    35    13    35    1
    36    35    36    1
    37    13    37    1
    38    32    38    1
    39    38    39    1
    40    38    40    1
    41    38    41    1
@<TRIPOS>SUBSTRUCTURE
     1 1           1 GROUP             0 ****  ****    0  
@<TRIPOS>MOLECULE
Molecule Name_00001_00284
    41    41     1     0     0
SMALL
NO_CHARGES
****
Generated from the CSD

@<TRIPOS>ATOM
     1 C5      -4.7024   0.6859  -1.1345   C.ar      1 1      0.0000
     2 C4      -4.4980  -0.6770  -1.1378   C.ar      1 1      0.0000
     3 C3      -3.3693  -1.2126  -0.5401   C.ar      1 1      0.0000
     4 C8      -2.4315  -0.3930   0.0689   C.ar      1 1      0.0000
     5 C7      -2.6494   0.9762   0.0637   C.ar      1 1      0.0000
     6 C6      -3.7777   1.5127  -0.5338   C.ar      1 1      0.0000
     7 H4      -5.2230  -1.3319  -1.6098   H         1 1      0.0000
     8 C9      -1.1997  -0.9769   0.7175   C.3       1 1      0.0000
     9 H7      -1.9270   1.6355   0.5334   H         1 1      0.0000
    10 H6      -3.9341   2.5864  -0.5289   H         1 1      0.0000
    11 C10     -0.2873   0.0814   1.3343   C.3       1 1      0.0000
    12 H9A     -1.5091  -1.6811   1.4996   H         1 1      0.0000
    13 C11      0.9699  -0.4522   2.0019   C.3       1 1      0.0000
    14 C12      1.9626  -1.0052   0.9853   C.3       1 1      0.0000
    15 H12A     1.5238  -1.8843   0.4974   H         1 1      0.0000
    16 C13      2.3420  -0.0036  -0.0628   C.2       1 1      0.0000
    17 C14      3.3513   1.0401   0.3109   C.3       1 1      0.0000
    18 H14B     3.1477   1.3761   1.3352   H         1 1      0.0000
    19 H14A     3.2360   1.9072  -0.3509   H         1 1      0.0000
    20 N        1.8158  -0.0580  -1.2700   N.pl3     1 1      0.0000
    21 HN       1.2086  -0.8539  -1.4655   H         1 1      0.0000
    22 C        2.1168   0.8211  -2.3905   C.3       1 1      0.0000
    23 H1A      2.0747   0.2754  -3.3309   H         1 1      0.0000
    24 H1C      1.4014   1.6392  -2.4414   H         1 1      0.0000
    25 H1B      3.1124   1.2479  -2.2905   H         1 1      0.0000
    26 H10A     0.0118   0.7818   0.5447   H         1 1      0.0000
    27 H10B    -0.8633   0.6429   2.0801   H         1 1      0.0000
    28 H9B     -0.6346  -1.5409  -0.0349   H         1 1      0.0000
    29 H5      -5.5866   1.1059  -1.6024   H         1 1      0.0000
    30 H3      -3.2172  -2.2868  -0.5485   H         1 1      0.0000
    31 H12B     2.8681  -1.3326   1.5109   H         1 1      0.0000
    32 C15      4.7849   0.5484   0.2345   C.3       1 1      0.0000
    33 H15A     4.9948   0.2088  -0.7873   H         1 1      0.0000
    34 H15C     4.9064  -0.3119   0.9043   H         1 1      0.0000
    35 OH       1.5918   0.6060   2.7363   O.3       1 1      0.0000
    36 OH1      0.9608   0.9531   3.4140   H         1 1      0.0000
    37 H22      0.6896  -1.2563   2.6999   H         1 1      0.0000
    38 C16      5.7816   1.6184   0.6156   C.3       1 1      0.0000
    39 H16C     5.6107   1.9594   1.6345   H         1 1      0.0000
    40 H16A     6.7990   1.2382   0.5516   H         1 1      0.0000
    41 H16B     5.6983   2.4769  -0.0476   H         1 1      0.0000
@<TRIPOS>BOND
     1     1     2   ar
     2     1     6   ar
     3     1    29    1
     4     2     3   ar
     5     2     7    1
     6     3     4   ar
     7     3    30    1
     8     4     5   ar
     9     4     8    1
    10     5     6   ar
    11     5     9    1
    12     6    10    1
    13     8    11    1
    14     8    12    1
    15     8    28    1
    16    11    13    1
    17    11    26    1
    18    11    27    1
    19    13    14    1
    20    14    15    1
    21    14    16    1
    22    14    31    1
    23    16    17    1
    24    16    20    2
    25    17    18    1
    26    17    19    1
    27    17    32    1
    28    20    21    1
    29    20    22    1
    30    22    23    1
    31    22    24    1
    32    22    25    1
    33    32    33    1
    34    32    34    1
    35    13    35    1
    36    35    36    1
    37    13    37    1
    38    32    38    1
    39    38    39    1
    40    38    40    1
    41    38    41    1
@<TRIPOS>SUBSTRUCTURE
     1 1           1 GROUP             0 ****  ****    0  
@<TRIPOS>MOLECULE
Molecule Name_00001_00285
    41    41     1     0     0
SMALL
NO_CHARGES
****
Generated from the CSD

@<TRIPOS>ATOM
     1 C5      -4.2463  -0.2263   1.5398   C.ar      1 1      0.0000
     2 C4      -3.9705   1.1198   1.4328   C.ar      1 1      0.0000
     3 C3      -2.8854   1.5505   0.6878   C.ar      1 1      0.0000
     4 C8      -2.0630   0.6416   0.0399   C.ar      1 1      0.0000
     5 C7      -2.3516  -0.7094   0.1573   C.ar      1 1      0.0000
     6 C6      -3.4365  -1.1411   0.9020   C.ar      1 1      0.0000
     7 H4      -4.6050   1.8437   1.9334   H         1 1      0.0000
     8 C9      -0.8784   1.1113  -0.7693   C.3       1 1      0.0000
     9 H7      -1.7197  -1.4374  -0.3406   H         1 1      0.0000
    10 H6      -3.6493  -2.2018   0.9836   H         1 1      0.0000
    11 C10     -0.0948  -0.0345  -1.4067   C.3       1 1      0.0000
    12 H9A     -1.2318   1.7850  -1.5597   H         1 1      0.0000
    13 C11      1.1103   0.3824  -2.2342   C.3       1 1      0.0000
    14 C12      2.2047   1.0026  -1.3726   C.3       1 1      0.0000
    15 H12A     1.8230   1.9246  -0.9171   H         1 1      0.0000
    16 C13      2.6835   0.0847  -0.2891   C.2       1 1      0.0000
    17 C14      1.9581   0.1249   1.0223   C.3       1 1      0.0000
    18 H14B     2.0576  -0.8528   1.5098   H         1 1      0.0000
    19 H14A     0.8903   0.2964   0.8393   H         1 1      0.0000
    20 N        3.6938  -0.7359  -0.4975   N.pl3     1 1      0.0000
    21 HN       4.0689  -0.7630  -1.4455   H         1 1      0.0000
    22 C        4.2386  -1.7018   0.4455   C.3       1 1      0.0000
    23 H1A      4.8545  -2.4370  -0.0681   H         1 1      0.0000
    24 H1C      4.8551  -1.2057   1.1922   H         1 1      0.0000
    25 H1B      3.4403  -2.2300   0.9625   H         1 1      0.0000
    26 H10A     0.2493  -0.7034  -0.6082   H         1 1      0.0000
    27 H10B    -0.7764  -0.6039  -2.0506   H         1 1      0.0000
    28 H9B     -0.2069   1.6841  -0.1180   H         1 1      0.0000
    29 H5      -5.0965  -0.5640   2.1231   H         1 1      0.0000
    30 H3      -2.6764   2.6123   0.6102   H         1 1      0.0000
    31 H12B     3.0537   1.2731  -2.0125   H         1 1      0.0000
    32 C15      2.4750   1.1954   1.9655   C.3       1 1      0.0000
    33 H15A     2.3803   2.1761   1.4832   H         1 1      0.0000
    34 H15C     3.5403   1.0198   2.1599   H         1 1      0.0000
    35 OH       1.6359  -0.7675  -2.9031   O.3       1 1      0.0000
    36 OH1      0.9374  -1.1606  -3.4825   H         1 1      0.0000
    37 H22      0.7890   1.1191  -2.9867   H         1 1      0.0000
    38 C16      1.7279   1.2149   3.2790   C.3       1 1      0.0000
    39 H16C     1.8229   0.2596   3.7910   H         1 1      0.0000
    40 H16A     2.1192   1.9908   3.9337   H         1 1      0.0000
    41 H16B     0.6696   1.4094   3.1179   H         1 1      0.0000
@<TRIPOS>BOND
     1     1     2   ar
     2     1     6   ar
     3     1    29    1
     4     2     3   ar
     5     2     7    1
     6     3     4   ar
     7     3    30    1
     8     4     5   ar
     9     4     8    1
    10     5     6   ar
    11     5     9    1
    12     6    10    1
    13     8    11    1
    14     8    12    1
    15     8    28    1
    16    11    13    1
    17    11    26    1
    18    11    27    1
    19    13    14    1
    20    14    15    1
    21    14    16    1
    22    14    31    1
    23    16    17    1
    24    16    20    2
    25    17    18    1
    26    17    19    1
    27    17    32    1
    28    20    21    1
    29    20    22    1
    30    22    23    1
    31    22    24    1
    32    22    25    1
    33    32    33    1
    34    32    34    1
    35    13    35    1
    36    35    36    1
    37    13    37    1
    38    32    38    1
    39    38    39    1
    40    38    40    1
    41    38    41    1
@<TRIPOS>SUBSTRUCTURE
     1 1           1 GROUP             0 ****  ****    0  
@<TRIPOS>MOLECULE
Molecule Name_00001_00286
    41    41     1     0     0
SMALL
NO_CHARGES
****
Generated from the CSD

@<TRIPOS>ATOM
     1 C5      -4.3467  -1.4636  -0.5265   C.ar      1 1      0.0000
     2 C4      -3.8407  -1.4517   0.7553   C.ar      1 1      0.0000
     3 C3      -3.0618  -0.3906   1.1859   C.ar      1 1      0.0000
     4 C8      -2.7796   0.6719   0.3412   C.ar      1 1      0.0000
     5 C7      -3.2942   0.6461  -0.9459   C.ar      1 1      0.0000
     6 C6      -4.0732  -0.4145  -1.3774   C.ar      1 1      0.0000
     7 H4      -4.0530  -2.2756   1.4287   H         1 1      0.0000
     8 C9      -1.9279   1.8268   0.8098   C.3       1 1      0.0000
     9 H7      -3.0840   1.4670  -1.6235   H         1 1      0.0000
    10 H6      -4.4691  -0.4195  -2.3876   H         1 1      0.0000
    11 C10     -0.6269   1.9712   0.0226   C.3       1 1      0.0000
    12 H9A     -2.5052   2.7551   0.7184   H         1 1      0.0000
    13 C11      0.3954   0.8686   0.2470   C.3       1 1      0.0000
    14 C12      1.6527   1.0803  -0.5891   C.3       1 1      0.0000
    15 H12A     2.1126   2.0362  -0.3093   H         1 1      0.0000
    16 C13      2.6598  -0.0156  -0.4145   C.2       1 1      0.0000
    17 C14      4.1096   0.3583  -0.4924   C.3       1 1      0.0000
    18 H14B     4.2403   1.0965  -1.2932   H         1 1      0.0000
    19 H14A     4.6972  -0.5283  -0.7604   H         1 1      0.0000
    20 N        2.2751  -1.2550  -0.1837   N.pl3     1 1      0.0000
    21 HN       1.2743  -1.4035  -0.0551   H         1 1      0.0000
    22 C        3.1376  -2.4060   0.0404   C.3       1 1      0.0000
    23 H1A      2.6883  -3.0910   0.7564   H         1 1      0.0000
    24 H1C      3.3055  -2.9483  -0.8877   H         1 1      0.0000
    25 H1B      4.1045  -2.0946   0.4300   H         1 1      0.0000
    26 H10A    -0.8719   2.0026  -1.0462   H         1 1      0.0000
    27 H10B    -0.1656   2.9301   0.2892   H         1 1      0.0000
    28 H9B     -1.6891   1.6854   1.8712   H         1 1      0.0000
    29 H5      -4.9572  -2.2946  -0.8641   H         1 1      0.0000
    30 H3      -2.6675  -0.3909   2.1967   H         1 1      0.0000
    31 H12B     1.3722   1.1422  -1.6478   H         1 1      0.0000
    32 C15      4.6537   0.9385   0.7999   C.3       1 1      0.0000
    33 H15A     4.5242   0.2057   1.6059   H         1 1      0.0000
    34 H15C     4.0753   1.8323   1.0646   H         1 1      0.0000
    35 OH       0.7528   0.8401   1.6316   O.3       1 1      0.0000
    36 OH1     -0.0434   0.6165   2.1739   H         1 1      0.0000
    37 H22     -0.0559  -0.0977  -0.0266   H         1 1      0.0000
    38 C16      6.1156   1.3067   0.6951   C.3       1 1      0.0000
    39 H16C     6.2711   2.0502  -0.0838   H         1 1      0.0000
    40 H16A     6.4777   1.7192   1.6345   H         1 1      0.0000
    41 H16B     6.7171   0.4327   0.4544   H         1 1      0.0000
@<TRIPOS>BOND
     1     1     2   ar
     2     1     6   ar
     3     1    29    1
     4     2     3   ar
     5     2     7    1
     6     3     4   ar
     7     3    30    1
     8     4     5   ar
     9     4     8    1
    10     5     6   ar
    11     5     9    1
    12     6    10    1
    13     8    11    1
    14     8    12    1
    15     8    28    1
    16    11    13    1
    17    11    26    1
    18    11    27    1
    19    13    14    1
    20    14    15    1
    21    14    16    1
    22    14    31    1
    23    16    17    1
    24    16    20    2
    25    17    18    1
    26    17    19    1
    27    17    32    1
    28    20    21    1
    29    20    22    1
    30    22    23    1
    31    22    24    1
    32    22    25    1
    33    32    33    1
    34    32    34    1
    35    13    35    1
    36    35    36    1
    37    13    37    1
    38    32    38    1
    39    38    39    1
    40    38    40    1
    41    38    41    1
@<TRIPOS>SUBSTRUCTURE
     1 1           1 GROUP             0 ****  ****    0  
@<TRIPOS>MOLECULE
Molecule Name_00001_00287
    41    41     1     0     0
SMALL
NO_CHARGES
****
Generated from the CSD

@<TRIPOS>ATOM
     1 C5      -4.3115   0.3818  -1.5810   C.ar      1 1      0.0000
     2 C4      -3.8537  -0.8949  -1.3363   C.ar      1 1      0.0000
     3 C3      -3.1033  -1.1594  -0.2027   C.ar      1 1      0.0000
     4 C8      -2.8018  -0.1518   0.7005   C.ar      1 1      0.0000
     5 C7      -3.2677   1.1279   0.4410   C.ar      1 1      0.0000
     6 C6      -4.0182   1.3935  -0.6922   C.ar      1 1      0.0000
     7 H4      -4.0817  -1.6946  -2.0332   H         1 1      0.0000
     8 C9      -1.9810  -0.4398   1.9343   C.3       1 1      0.0000
     9 H7      -3.0416   1.9313   1.1343   H         1 1      0.0000
    10 H6      -4.3761   2.4003  -0.8808   H         1 1      0.0000
    11 C10     -0.6533   0.3148   1.9615   C.3       1 1      0.0000
    12 H9A     -2.5649  -0.1670   2.8220   H         1 1      0.0000
    13 C11      0.3721  -0.1347   0.9332   C.3       1 1      0.0000
    14 C12      1.6573   0.6814   1.0174   C.3       1 1      0.0000
    15 H12A     2.0957   0.5578   2.0154   H         1 1      0.0000
    16 C13      2.6693   0.2824  -0.0132   C.2       1 1      0.0000
    17 C14      4.1167   0.3744   0.3665   C.3       1 1      0.0000
    18 H14B     4.6896  -0.3218  -0.2585   H         1 1      0.0000
    19 H14A     4.2371   0.0583   1.4099   H         1 1      0.0000
    20 N        2.2901  -0.1487  -1.1997   N.pl3     1 1      0.0000
    21 HN       1.2870  -0.2666  -1.3410   H         1 1      0.0000
    22 C        3.1565  -0.6011  -2.2785   C.3       1 1      0.0000
    23 H1A      2.5863  -1.1451  -3.0286   H         1 1      0.0000
    24 H1C      3.6380   0.2440  -2.7661   H         1 1      0.0000
    25 H1B      3.9339  -1.2608  -1.8993   H         1 1      0.0000
    26 H10A    -0.8587   1.3805   1.8013   H         1 1      0.0000
    27 H10B    -0.2130   0.2047   2.9602   H         1 1      0.0000
    28 H9B     -1.7804  -1.5171   1.9849   H         1 1      0.0000
    29 H5      -4.8996   0.5894  -2.4688   H         1 1      0.0000
    30 H3      -2.7470  -2.1677  -0.0193   H         1 1      0.0000
    31 H12B     1.4157   1.7436   0.8883   H         1 1      0.0000
    32 C15      4.6964   1.7672   0.2030   C.3       1 1      0.0000
    33 H15A     4.1266   2.4692   0.8242   H         1 1      0.0000
    34 H15C     4.5880   2.0817  -0.8423   H         1 1      0.0000
    35 OH       0.6781  -1.5145   1.1536   O.3       1 1      0.0000
    36 OH1     -0.1275  -2.0626   0.9844   H         1 1      0.0000
    37 H22     -0.0578  -0.0193  -0.0737   H         1 1      0.0000
    38 C16      6.1552   1.8330   0.5920   C.3       1 1      0.0000
    39 H16C     6.7493   1.1612  -0.0240   H         1 1      0.0000
    40 H16A     6.5432   2.8415   0.4650   H         1 1      0.0000
    41 H16B     6.2901   1.5466   1.6330   H         1 1      0.0000
@<TRIPOS>BOND
     1     1     2   ar
     2     1     6   ar
     3     1    29    1
     4     2     3   ar
     5     2     7    1
     6     3     4   ar
     7     3    30    1
     8     4     5   ar
     9     4     8    1
    10     5     6   ar
    11     5     9    1
    12     6    10    1
    13     8    11    1
    14     8    12    1
    15     8    28    1
    16    11    13    1
    17    11    26    1
    18    11    27    1
    19    13    14    1
    20    14    15    1
    21    14    16    1
    22    14    31    1
    23    16    17    1
    24    16    20    2
    25    17    18    1
    26    17    19    1
    27    17    32    1
    28    20    21    1
    29    20    22    1
    30    22    23    1
    31    22    24    1
    32    22    25    1
    33    32    33    1
    34    32    34    1
    35    13    35    1
    36    35    36    1
    37    13    37    1
    38    32    38    1
    39    38    39    1
    40    38    40    1
    41    38    41    1
@<TRIPOS>SUBSTRUCTURE
     1 1           1 GROUP             0 ****  ****    0  
@<TRIPOS>MOLECULE
Molecule Name_00001_00288
    41    41     1     0     0
SMALL
NO_CHARGES
****
Generated from the CSD

@<TRIPOS>ATOM
     1 C5      -3.9606   1.5702  -0.9516   C.ar      1 1      0.0000
     2 C4      -3.6233   0.3817  -1.5624   C.ar      1 1      0.0000
     3 C3      -2.9663  -0.6058  -0.8475   C.ar      1 1      0.0000
     4 C8      -2.6389  -0.4183   0.4866   C.ar      1 1      0.0000
     5 C7      -2.9832   0.7826   1.0878   C.ar      1 1      0.0000
     6 C6      -3.6402   1.7708   0.3737   C.ar      1 1      0.0000
     7 H4      -3.8731   0.2193  -2.6057   H         1 1      0.0000
     8 C9      -1.9198  -1.4937   1.2646   C.3       1 1      0.0000
     9 H7      -2.7348   0.9504   2.1305   H         1 1      0.0000
    10 H6      -3.9034   2.7049   0.8588   H         1 1      0.0000
    11 C10     -0.5394  -1.0594   1.7533   C.3       1 1      0.0000
    12 H9A     -2.5320  -1.7768   2.1297   H         1 1      0.0000
    13 C11      0.5062  -0.8702   0.6661   C.3       1 1      0.0000
    14 C12      1.8459  -0.4195   1.2379   C.3       1 1      0.0000
    15 H12A     2.2555  -1.2206   1.8655   H         1 1      0.0000
    16 C13      2.8449  -0.0716   0.1765   C.2       1 1      0.0000
    17 C14      3.8594   0.9836   0.5005   C.3       1 1      0.0000
    18 H14B     4.7409   0.8314  -0.1344   H         1 1      0.0000
    19 H14A     4.1790   0.8691   1.5435   H         1 1      0.0000
    20 N        2.8345  -0.6887  -0.9881   N.pl3     1 1      0.0000
    21 HN       2.1700  -1.4556  -1.0900   H         1 1      0.0000
    22 C        3.7611  -0.4800  -2.0913   C.3       1 1      0.0000
    23 H1A      3.5056  -1.1174  -2.9353   H         1 1      0.0000
    24 H1C      3.7333   0.5544  -2.4274   H         1 1      0.0000
    25 H1B      4.7804  -0.7103  -1.7890   H         1 1      0.0000
    26 H10A    -0.6477  -0.1127   2.2968   H         1 1      0.0000
    27 H10B    -0.1702  -1.8119   2.4611   H         1 1      0.0000
    28 H9B     -1.8105  -2.3806   0.6284   H         1 1      0.0000
    29 H5      -4.4756   2.3440  -1.5113   H         1 1      0.0000
    30 H3      -2.7045  -1.5378  -1.3375   H         1 1      0.0000
    31 H12B     1.6851   0.4567   1.8780   H         1 1      0.0000
    32 C15      3.3474   2.3971   0.2938   C.3       1 1      0.0000
    33 H15A     2.4641   2.5556   0.9248   H         1 1      0.0000
    34 H15C     3.0376   2.5183  -0.7515   H         1 1      0.0000
    35 OH       0.6855  -2.1081  -0.0276   O.3       1 1      0.0000
    36 OH1     -0.1296  -2.3167  -0.5472   H         1 1      0.0000
    37 H22      0.1483  -0.1095  -0.0448   H         1 1      0.0000
    38 C16      4.3881   3.4409   0.6271   C.3       1 1      0.0000
    39 H16C     5.2690   3.3212  -0.0002   H         1 1      0.0000
    40 H16A     3.9937   4.4427   0.4699   H         1 1      0.0000
    41 H16B     4.6984   3.3581   1.6666   H         1 1      0.0000
@<TRIPOS>BOND
     1     1     2   ar
     2     1     6   ar
     3     1    29    1
     4     2     3   ar
     5     2     7    1
     6     3     4   ar
     7     3    30    1
     8     4     5   ar
     9     4     8    1
    10     5     6   ar
    11     5     9    1
    12     6    10    1
    13     8    11    1
    14     8    12    1
    15     8    28    1
    16    11    13    1
    17    11    26    1
    18    11    27    1
    19    13    14    1
    20    14    15    1
    21    14    16    1
    22    14    31    1
    23    16    17    1
    24    16    20    2
    25    17    18    1
    26    17    19    1
    27    17    32    1
    28    20    21    1
    29    20    22    1
    30    22    23    1
    31    22    24    1
    32    22    25    1
    33    32    33    1
    34    32    34    1
    35    13    35    1
    36    35    36    1
    37    13    37    1
    38    32    38    1
    39    38    39    1
    40    38    40    1
    41    38    41    1
@<TRIPOS>SUBSTRUCTURE
     1 1           1 GROUP             0 ****  ****    0  
@<TRIPOS>MOLECULE
Molecule Name_00001_00289
    41    41     1     0     0
SMALL
NO_CHARGES
****
Generated from the CSD

@<TRIPOS>ATOM
     1 C5      -4.7386  -0.7109  -1.0776   C.ar      1 1      0.0000
     2 C4      -4.4556  -1.1543   0.1962   C.ar      1 1      0.0000
     3 C3      -3.4057  -0.5993   0.9087   C.ar      1 1      0.0000
     4 C8      -2.6261   0.4059   0.3574   C.ar      1 1      0.0000
     5 C7      -2.9214   0.8412  -0.9253   C.ar      1 1      0.0000
     6 C6      -3.9711   0.2870  -1.6386   C.ar      1 1      0.0000
     7 H4      -5.0568  -1.9398   0.6419   H         1 1      0.0000
     8 C9      -1.4797   1.0083   1.1331   C.3       1 1      0.0000
     9 H7      -2.3226   1.6259  -1.3760   H         1 1      0.0000
    10 H6      -4.1898   0.6390  -2.6413   H         1 1      0.0000
    11 C10     -0.1713   0.2382   0.9652   C.3       1 1      0.0000
    12 H9A     -1.3299   2.0430   0.8011   H         1 1      0.0000
    13 C11      1.0180   0.8021   1.7259   C.3       1 1      0.0000
    14 C12      2.2748  -0.0360   1.5187   C.3       1 1      0.0000
    15 H12A     2.1246  -1.0247   1.9694   H         1 1      0.0000
    16 C13      2.6289  -0.2073   0.0727   C.2       1 1      0.0000
    17 C14      3.3138   0.9371  -0.6122   C.3       1 1      0.0000
    18 H14B     2.9038   1.8770  -0.2225   H         1 1      0.0000
    19 H14A     3.0931   0.8996  -1.6859   H         1 1      0.0000
    20 N        2.3600  -1.3324  -0.5591   N.pl3     1 1      0.0000
    21 HN       1.9770  -2.0903   0.0058   H         1 1      0.0000
    22 C        2.6775  -1.6497  -1.9439   C.3       1 1      0.0000
    23 H1A      2.9250  -2.7037  -2.0510   H         1 1      0.0000
    24 H1C      1.8314  -1.4328  -2.5926   H         1 1      0.0000
    25 H1B      3.5274  -1.0651  -2.2894   H         1 1      0.0000
    26 H10A    -0.3341  -0.7951   1.2957   H         1 1      0.0000
    27 H10B     0.0811   0.2130  -0.1020   H         1 1      0.0000
    28 H9B     -1.7446   1.0342   2.1973   H         1 1      0.0000
    29 H5      -5.5613  -1.1452  -1.6360   H         1 1      0.0000
    30 H3      -3.1906  -0.9556   1.9107   H         1 1      0.0000
    31 H12B     3.1141   0.4434   2.0375   H         1 1      0.0000
    32 C15      4.8188   0.9435  -0.4178   C.3       1 1      0.0000
    33 H15A     5.2607   1.7184  -1.0563   H         1 1      0.0000
    34 H15C     5.2267  -0.0241  -0.7354   H         1 1      0.0000
    35 OH       1.2663   2.1376   1.2778   O.3       1 1      0.0000
    36 OH1      0.4634   2.6933   1.4345   H         1 1      0.0000
    37 H22      0.7772   0.8235   2.8000   H         1 1      0.0000
    38 C16      5.2128   1.2006   1.0183   C.3       1 1      0.0000
    39 H16C     5.0483   0.3145   1.6278   H         1 1      0.0000
    40 H16A     6.2648   1.4691   1.0874   H         1 1      0.0000
    41 H16B     4.6267   2.0150   1.4391   H         1 1      0.0000
@<TRIPOS>BOND
     1     1     2   ar
     2     1     6   ar
     3     1    29    1
     4     2     3   ar
     5     2     7    1
     6     3     4   ar
     7     3    30    1
     8     4     5   ar
     9     4     8    1
    10     5     6   ar
    11     5     9    1
    12     6    10    1
    13     8    11    1
    14     8    12    1
    15     8    28    1
    16    11    13    1
    17    11    26    1
    18    11    27    1
    19    13    14    1
    20    14    15    1
    21    14    16    1
    22    14    31    1
    23    16    17    1
    24    16    20    2
    25    17    18    1
    26    17    19    1
    27    17    32    1
    28    20    21    1
    29    20    22    1
    30    22    23    1
    31    22    24    1
    32    22    25    1
    33    32    33    1
    34    32    34    1
    35    13    35    1
    36    35    36    1
    37    13    37    1
    38    32    38    1
    39    38    39    1
    40    38    40    1
    41    38    41    1
@<TRIPOS>SUBSTRUCTURE
     1 1           1 GROUP             0 ****  ****    0  
@<TRIPOS>MOLECULE
Molecule Name_00001_00290
    41    41     1     0     0
SMALL
NO_CHARGES
****
Generated from the CSD

@<TRIPOS>ATOM
     1 C5      -4.6748  -0.8939  -1.0917   C.ar      1 1      0.0000
     2 C4      -4.4395  -1.1980   0.2317   C.ar      1 1      0.0000
     3 C3      -3.4402  -0.5404   0.9295   C.ar      1 1      0.0000
     4 C8      -2.6642   0.4295   0.3137   C.ar      1 1      0.0000
     5 C7      -2.9111   0.7243  -1.0183   C.ar      1 1      0.0000
     6 C6      -3.9102   0.0673  -1.7169   C.ar      1 1      0.0000
     7 H4      -5.0386  -1.9543   0.7281   H         1 1      0.0000
     8 C9      -1.5729   1.1438   1.0738   C.3       1 1      0.0000
     9 H7      -2.3142   1.4791  -1.5196   H         1 1      0.0000
    10 H6      -4.0914   0.3098  -2.7588   H         1 1      0.0000
    11 C10     -0.2369   0.4040   1.0425   C.3       1 1      0.0000
    12 H9A     -1.4369   2.1444   0.6453   H         1 1      0.0000
    13 C11      0.8991   1.0799   1.7934   C.3       1 1      0.0000
    14 C12      2.1872   0.2668   1.7278   C.3       1 1      0.0000
    15 H12A     2.0448  -0.6748   2.2724   H         1 1      0.0000
    16 C13      2.6114  -0.0405   0.3238   C.2       1 1      0.0000
    17 C14      3.2908   1.0505  -0.4481   C.3       1 1      0.0000
    18 H14B     2.7904   2.0016  -0.2281   H         1 1      0.0000
    19 H14A     3.1774   0.8575  -1.5219   H         1 1      0.0000
    20 N        2.4062  -1.2338  -0.1972   N.pl3     1 1      0.0000
    21 HN       2.0218  -1.9423   0.4277   H         1 1      0.0000
    22 C        2.7956  -1.6811  -1.5266   C.3       1 1      0.0000
    23 H1A      3.0822  -2.7306  -1.5117   H         1 1      0.0000
    24 H1C      1.9728  -1.5645  -2.2287   H         1 1      0.0000
    25 H1B      3.6405  -1.1042  -1.8966   H         1 1      0.0000
    26 H10A    -0.3859  -0.5957   1.4687   H         1 1      0.0000
    27 H10B     0.0659   0.2804  -0.0046   H         1 1      0.0000
    28 H9B     -1.8880   1.2675   2.1172   H         1 1      0.0000
    29 H5      -5.4578  -1.4087  -1.6387   H         1 1      0.0000
    30 H3      -3.2624  -0.7874   1.9710   H         1 1      0.0000
    31 H12B     2.9881   0.8242   2.2290   H         1 1      0.0000
    32 C15      4.7669   1.1894  -0.1250   C.3       1 1      0.0000
    33 H15A     4.8856   1.3491   0.9538   H         1 1      0.0000
    34 H15C     5.1665   2.0720  -0.6396   H         1 1      0.0000
    35 OH       1.1306   2.3711   1.2231   O.3       1 1      0.0000
    36 OH1      0.3062   2.9135   1.2879   H         1 1      0.0000
    37 H22      0.6075   1.2010   2.8481   H         1 1      0.0000
    38 C16      5.5633  -0.0273  -0.5363   C.3       1 1      0.0000
    39 H16C     5.4815  -0.1977  -1.6077   H         1 1      0.0000
    40 H16A     6.6160   0.1003  -0.2927   H         1 1      0.0000
    41 H16B     5.2021  -0.9162  -0.0232   H         1 1      0.0000
@<TRIPOS>BOND
     1     1     2   ar
     2     1     6   ar
     3     1    29    1
     4     2     3   ar
     5     2     7    1
     6     3     4   ar
     7     3    30    1
     8     4     5   ar
     9     4     8    1
    10     5     6   ar
    11     5     9    1
    12     6    10    1
    13     8    11    1
    14     8    12    1
    15     8    28    1
    16    11    13    1
    17    11    26    1
    18    11    27    1
    19    13    14    1
    20    14    15    1
    21    14    16    1
    22    14    31    1
    23    16    17    1
    24    16    20    2
    25    17    18    1
    26    17    19    1
    27    17    32    1
    28    20    21    1
    29    20    22    1
    30    22    23    1
    31    22    24    1
    32    22    25    1
    33    32    33    1
    34    32    34    1
    35    13    35    1
    36    35    36    1
    37    13    37    1
    38    32    38    1
    39    38    39    1
    40    38    40    1
    41    38    41    1
@<TRIPOS>SUBSTRUCTURE
     1 1           1 GROUP             0 ****  ****    0  
@<TRIPOS>MOLECULE
Molecule Name_00001_00291
    41    41     1     0     0
SMALL
NO_CHARGES
****
Generated from the CSD

@<TRIPOS>ATOM
     1 C5      -4.5316   1.3949   1.0229   C.ar      1 1      0.0000
     2 C4      -4.2028   1.5730  -0.3036   C.ar      1 1      0.0000
     3 C3      -3.2196   0.7916  -0.8874   C.ar      1 1      0.0000
     4 C8      -2.5535  -0.1777  -0.1532   C.ar      1 1      0.0000
     5 C7      -2.8938  -0.3449   1.1804   C.ar      1 1      0.0000
     6 C6      -3.8768   0.4359   1.7651   C.ar      1 1      0.0000
     7 H4      -4.7153   2.3269  -0.8918   H         1 1      0.0000
     8 C9      -1.4796  -1.0269  -0.7891   C.3       1 1      0.0000
     9 H7      -2.3836  -1.0969   1.7732   H         1 1      0.0000
    10 H6      -4.1320   0.2923   2.8098   H         1 1      0.0000
    11 C10     -0.0953  -0.3837  -0.7348   C.3       1 1      0.0000
    12 H9A     -1.4430  -1.9965  -0.2773   H         1 1      0.0000
    13 C11      1.0254  -1.1973  -1.3618   C.3       1 1      0.0000
    14 C12      2.3500  -0.4421  -1.3529   C.3       1 1      0.0000
    15 H12A     2.2591   0.4486  -1.9868   H         1 1      0.0000
    16 C13      2.7716  -0.0216   0.0223   C.2       1 1      0.0000
    17 C14      2.2314   1.2755   0.5453   C.3       1 1      0.0000
    18 H14B     2.2059   1.2300   1.6410   H         1 1      0.0000
    19 H14A     1.1999   1.4044   0.1952   H         1 1      0.0000
    20 N        3.5733  -0.7796   0.7435   N.pl3     1 1      0.0000
    21 HN       3.8188  -1.6867   0.3474   H         1 1      0.0000
    22 C        4.0331  -0.5158   2.0993   C.3       1 1      0.0000
    23 H1A      4.4277  -1.4212   2.5556   H         1 1      0.0000
    24 H1C      4.8207   0.2348   2.0998   H         1 1      0.0000
    25 H1B      3.2176  -0.1511   2.7201   H         1 1      0.0000
    26 H10A    -0.1451   0.5861  -1.2450   H         1 1      0.0000
    27 H10B     0.1588  -0.1971   0.3160   H         1 1      0.0000
    28 H9B     -1.7462  -1.2124  -1.8369   H         1 1      0.0000
    29 H5      -5.3021   2.0067   1.4805   H         1 1      0.0000
    30 H3      -2.9675   0.9399  -1.9322   H         1 1      0.0000
    31 H12B     3.1293  -1.0814  -1.7855   H         1 1      0.0000
    32 C15      3.0492   2.4830   0.1259   C.3       1 1      0.0000
    33 H15A     2.5346   3.3961   0.4494   H         1 1      0.0000
    34 H15C     3.1185   2.5081  -0.9687   H         1 1      0.0000
    35 OH       1.1777  -2.4187  -0.6333   O.3       1 1      0.0000
    36 OH1      0.3284  -2.9248  -0.6557   H         1 1      0.0000
    37 H22      0.7564  -1.4323  -2.4032   H         1 1      0.0000
    38 C16      4.4426   2.4659   0.7107   C.3       1 1      0.0000
    39 H16C     4.9854   1.5799   0.3882   H         1 1      0.0000
    40 H16A     5.0047   3.3419   0.3938   H         1 1      0.0000
    41 H16B     4.4044   2.4629   1.7981   H         1 1      0.0000
@<TRIPOS>BOND
     1     1     2   ar
     2     1     6   ar
     3     1    29    1
     4     2     3   ar
     5     2     7    1
     6     3     4   ar
     7     3    30    1
     8     4     5   ar
     9     4     8    1
    10     5     6   ar
    11     5     9    1
    12     6    10    1
    13     8    11    1
    14     8    12    1
    15     8    28    1
    16    11    13    1
    17    11    26    1
    18    11    27    1
    19    13    14    1
    20    14    15    1
    21    14    16    1
    22    14    31    1
    23    16    17    1
    24    16    20    2
    25    17    18    1
    26    17    19    1
    27    17    32    1
    28    20    21    1
    29    20    22    1
    30    22    23    1
    31    22    24    1
    32    22    25    1
    33    32    33    1
    34    32    34    1
    35    13    35    1
    36    35    36    1
    37    13    37    1
    38    32    38    1
    39    38    39    1
    40    38    40    1
    41    38    41    1
@<TRIPOS>SUBSTRUCTURE
     1 1           1 GROUP             0 ****  ****    0  
@<TRIPOS>MOLECULE
Molecule Name_00001_00292
    41    41     1     0     0
SMALL
NO_CHARGES
****
Generated from the CSD

@<TRIPOS>ATOM
     1 C5      -4.4799  -0.3536   1.5125   C.ar      1 1      0.0000
     2 C4      -4.1040   0.9642   1.3653   C.ar      1 1      0.0000
     3 C3      -3.1049   1.3066   0.4694   C.ar      1 1      0.0000
     4 C8      -2.4697   0.3367  -0.2908   C.ar      1 1      0.0000
     5 C7      -2.8571  -0.9849  -0.1315   C.ar      1 1      0.0000
     6 C6      -3.8561  -1.3283   0.7641   C.ar      1 1      0.0000
     7 H4      -4.5920   1.7350   1.9525   H         1 1      0.0000
     8 C9      -1.3784   0.7101  -1.2648   C.3       1 1      0.0000
     9 H7      -2.3716  -1.7596  -0.7156   H         1 1      0.0000
    10 H6      -4.1483  -2.3672   0.8767   H         1 1      0.0000
    11 C10      0.0063   0.7646  -0.6225   C.3       1 1      0.0000
    12 H9A     -1.3644  -0.0222  -2.0815   H         1 1      0.0000
    13 C11      1.1442   1.1364  -1.5595   C.3       1 1      0.0000
    14 C12      2.4722   1.2597  -0.8205   C.3       1 1      0.0000
    15 H12A     2.4086   2.0890  -0.1052   H         1 1      0.0000
    16 C13      2.8484   0.0090  -0.0858   C.2       1 1      0.0000
    17 C14      2.2938  -0.1759   1.2947   C.3       1 1      0.0000
    18 H14B     2.1966  -1.2502   1.4942   H         1 1      0.0000
    19 H14A     1.2891   0.2618   1.3418   H         1 1      0.0000
    20 N        3.6239  -0.8965  -0.6482   N.pl3     1 1      0.0000
    21 HN       3.8806  -0.7333  -1.6216   H         1 1      0.0000
    22 C        4.0386  -2.1665  -0.0702   C.3       1 1      0.0000
    23 H1A      4.3665  -2.8547  -0.8464   H         1 1      0.0000
    24 H1C      4.8629  -2.0225   0.6252   H         1 1      0.0000
    25 H1B      3.2172  -2.6318   0.4705   H         1 1      0.0000
    26 H10A    -0.0208   1.4959   0.1948   H         1 1      0.0000
    27 H10B     0.2245  -0.2179  -0.1861   H         1 1      0.0000
    28 H9B     -1.6092   1.6905  -1.6994   H         1 1      0.0000
    29 H5      -5.2628  -0.6222   2.2140   H         1 1      0.0000
    30 H3      -2.8158   2.3468   0.3612   H         1 1      0.0000
    31 H12B     3.2622   1.5013  -1.5422   H         1 1      0.0000
    32 C15      3.1541   0.4460   2.3792   C.3       1 1      0.0000
    33 H15A     4.1721   0.0441   2.3054   H         1 1      0.0000
    34 H15C     2.7540   0.1651   3.3612   H         1 1      0.0000
    35 OH       1.2621   0.1311  -2.5701   O.3       1 1      0.0000
    36 OH1      0.4111   0.0630  -3.0693   H         1 1      0.0000
    37 H22      0.9121   2.1003  -2.0382   H         1 1      0.0000
    38 C16      3.2078   1.9528   2.2781   C.3       1 1      0.0000
    39 H16C     2.2048   2.3729   2.2409   H         1 1      0.0000
    40 H16A     3.7220   2.3789   3.1370   H         1 1      0.0000
    41 H16B     3.7376   2.2604   1.3790   H         1 1      0.0000
@<TRIPOS>BOND
     1     1     2   ar
     2     1     6   ar
     3     1    29    1
     4     2     3   ar
     5     2     7    1
     6     3     4   ar
     7     3    30    1
     8     4     5   ar
     9     4     8    1
    10     5     6   ar
    11     5     9    1
    12     6    10    1
    13     8    11    1
    14     8    12    1
    15     8    28    1
    16    11    13    1
    17    11    26    1
    18    11    27    1
    19    13    14    1
    20    14    15    1
    21    14    16    1
    22    14    31    1
    23    16    17    1
    24    16    20    2
    25    17    18    1
    26    17    19    1
    27    17    32    1
    28    20    21    1
    29    20    22    1
    30    22    23    1
    31    22    24    1
    32    22    25    1
    33    32    33    1
    34    32    34    1
    35    13    35    1
    36    35    36    1
    37    13    37    1
    38    32    38    1
    39    38    39    1
    40    38    40    1
    41    38    41    1
@<TRIPOS>SUBSTRUCTURE
     1 1           1 GROUP             0 ****  ****    0  
@<TRIPOS>MOLECULE
Molecule Name_00001_00293
    41    41     1     0     0
SMALL
NO_CHARGES
****
Generated from the CSD

@<TRIPOS>ATOM
     1 C5      -4.7758   0.7654   1.2042   C.ar      1 1      0.0000
     2 C4      -4.7384   1.1344  -0.1231   C.ar      1 1      0.0000
     3 C3      -3.7736   0.6067  -0.9649   C.ar      1 1      0.0000
     4 C8      -2.8349  -0.2969  -0.4909   C.ar      1 1      0.0000
     5 C7      -2.8837  -0.6582   0.8467   C.ar      1 1      0.0000
     6 C6      -3.8481  -0.1310   1.6893   C.ar      1 1      0.0000
     7 H4      -5.4664   1.8401  -0.5095   H         1 1      0.0000
     8 C9      -1.7814  -0.8694  -1.4080   C.3       1 1      0.0000
     9 H7      -2.1574  -1.3627   1.2382   H         1 1      0.0000
    10 H6      -3.8734  -0.4243   2.7336   H         1 1      0.0000
    11 C10     -0.5316   0.0034  -1.5051   C.3       1 1      0.0000
    12 H9A     -1.4948  -1.8638  -1.0440   H         1 1      0.0000
    13 C11      0.6367  -0.4339  -0.6363   C.3       1 1      0.0000
    14 C12      1.8459   0.4789  -0.8081   C.3       1 1      0.0000
    15 H12A     1.5856   1.4873  -0.4633   H         1 1      0.0000
    16 C13      3.0489   0.0003  -0.0536   C.2       1 1      0.0000
    17 C14      4.2937   0.8318  -0.1369   C.3       1 1      0.0000
    18 H14B     4.4047   1.1975  -1.1652   H         1 1      0.0000
    19 H14A     5.1639   0.2025   0.0863   H         1 1      0.0000
    20 N        2.9987  -1.1019   0.6674   N.pl3     1 1      0.0000
    21 HN       2.0880  -1.5548   0.7421   H         1 1      0.0000
    22 C        4.0721  -1.6625   1.4753   C.3       1 1      0.0000
    23 H1A      3.6742  -2.1356   2.3706   H         1 1      0.0000
    24 H1C      4.6259  -2.4119   0.9137   H         1 1      0.0000
    25 H1B      4.7697  -0.8867   1.7834   H         1 1      0.0000
    26 H10A    -0.1992   0.0150  -2.5505   H         1 1      0.0000
    27 H10B    -0.8036   1.0294  -1.2283   H         1 1      0.0000
    28 H9B     -2.2102  -0.9917  -2.4103   H         1 1      0.0000
    29 H5      -5.5317   1.1785   1.8639   H         1 1      0.0000
    30 H3      -3.7521   0.9039  -2.0081   H         1 1      0.0000
    31 H12B     2.0958   0.5449  -1.8742   H         1 1      0.0000
    32 C15      4.2897   2.0207   0.8061   C.3       1 1      0.0000
    33 H15A     4.1770   1.6621   1.8367   H         1 1      0.0000
    34 H15C     3.4268   2.6583   0.5777   H         1 1      0.0000
    35 OH       0.2288  -0.4181   0.7345   O.3       1 1      0.0000
    36 OH1     -0.0362  -1.3299   1.0109   H         1 1      0.0000
    37 H22      0.9230  -1.4603  -0.9132   H         1 1      0.0000
    38 C16      5.5542   2.8417   0.7028   C.3       1 1      0.0000
    39 H16C     5.6809   3.2295  -0.3058   H         1 1      0.0000
    40 H16A     5.5233   3.6855   1.3890   H         1 1      0.0000
    41 H16B     6.4265   2.2387   0.9461   H         1 1      0.0000
@<TRIPOS>BOND
     1     1     2   ar
     2     1     6   ar
     3     1    29    1
     4     2     3   ar
     5     2     7    1
     6     3     4   ar
     7     3    30    1
     8     4     5   ar
     9     4     8    1
    10     5     6   ar
    11     5     9    1
    12     6    10    1
    13     8    11    1
    14     8    12    1
    15     8    28    1
    16    11    13    1
    17    11    26    1
    18    11    27    1
    19    13    14    1
    20    14    15    1
    21    14    16    1
    22    14    31    1
    23    16    17    1
    24    16    20    2
    25    17    18    1
    26    17    19    1
    27    17    32    1
    28    20    21    1
    29    20    22    1
    30    22    23    1
    31    22    24    1
    32    22    25    1
    33    32    33    1
    34    32    34    1
    35    13    35    1
    36    35    36    1
    37    13    37    1
    38    32    38    1
    39    38    39    1
    40    38    40    1
    41    38    41    1
@<TRIPOS>SUBSTRUCTURE
     1 1           1 GROUP             0 ****  ****    0  
@<TRIPOS>MOLECULE
Molecule Name_00001_00294
    41    41     1     0     0
SMALL
NO_CHARGES
****
Generated from the CSD

@<TRIPOS>ATOM
     1 C5      -4.9462  -0.8979   0.7985   C.ar      1 1      0.0000
     2 C4      -4.8841   0.4703   0.9522   C.ar      1 1      0.0000
     3 C3      -3.8667   1.1923   0.3509   C.ar      1 1      0.0000
     4 C8      -2.8993   0.5562  -0.4118   C.ar      1 1      0.0000
     5 C7      -2.9734  -0.8206  -0.5568   C.ar      1 1      0.0000
     6 C6      -3.9905  -1.5435   0.0440   C.ar      1 1      0.0000
     7 H4      -5.6340   0.9829   1.5455   H         1 1      0.0000
     8 C9      -1.7886   1.3432  -1.0643   C.3       1 1      0.0000
     9 H7      -2.2254  -1.3381  -1.1483   H         1 1      0.0000
    10 H6      -4.0350  -2.6205  -0.0795   H         1 1      0.0000
    11 C10     -0.5823   1.5497  -0.1504   C.3       1 1      0.0000
    12 H9A     -1.4640   0.8167  -1.9703   H         1 1      0.0000
    13 C11      0.5776   0.5937  -0.3777   C.3       1 1      0.0000
    14 C12      1.7438   0.8813   0.5615   C.3       1 1      0.0000
    15 H12A     1.4216   0.7102   1.5961   H         1 1      0.0000
    16 C13      2.9443   0.0307   0.2771   C.2       1 1      0.0000
    17 C14      4.1473   0.2170   1.1523   C.3       1 1      0.0000
    18 H14B     4.7407  -0.7055   1.1362   H         1 1      0.0000
    19 H14A     3.8197   0.3819   2.1860   H         1 1      0.0000
    20 N        2.9266  -0.8573  -0.6968   N.pl3     1 1      0.0000
    21 HN       2.0382  -0.9820  -1.1817   H         1 1      0.0000
    22 C        4.0001  -1.7707  -1.0606   C.3       1 1      0.0000
    23 H1A      3.6568  -2.4961  -1.7953   H         1 1      0.0000
    24 H1C      4.8401  -1.2273  -1.4882   H         1 1      0.0000
    25 H1B      4.3574  -2.3144  -0.1887   H         1 1      0.0000
    26 H10A    -0.2169   2.5749  -0.2875   H         1 1      0.0000
    27 H10B    -0.9150   1.4487   0.8901   H         1 1      0.0000
    28 H9B     -2.1776   2.3227  -1.3688   H         1 1      0.0000
    29 H5      -5.7433  -1.4639   1.2692   H         1 1      0.0000
    30 H3      -3.8262   2.2690   0.4784   H         1 1      0.0000
    31 H12B     2.0249   1.9377   0.4700   H         1 1      0.0000
    32 C15      5.0317   1.3736   0.7246   C.3       1 1      0.0000
    33 H15A     4.4437   2.2996   0.7366   H         1 1      0.0000
    34 H15C     5.3705   1.2059  -0.3052   H         1 1      0.0000
    35 OH       0.1248  -0.7463  -0.1656   O.3       1 1      0.0000
    36 OH1     -0.1570  -1.1402  -1.0278   H         1 1      0.0000
    37 H22      0.9247   0.6944  -1.4177   H         1 1      0.0000
    38 C16      6.2361   1.5399   1.6221   C.3       1 1      0.0000
    39 H16C     6.8508   0.6422   1.6129   H         1 1      0.0000
    40 H16A     6.8505   2.3749   1.2922   H         1 1      0.0000
    41 H16B     5.9290   1.7298   2.6485   H         1 1      0.0000
@<TRIPOS>BOND
     1     1     2   ar
     2     1     6   ar
     3     1    29    1
     4     2     3   ar
     5     2     7    1
     6     3     4   ar
     7     3    30    1
     8     4     5   ar
     9     4     8    1
    10     5     6   ar
    11     5     9    1
    12     6    10    1
    13     8    11    1
    14     8    12    1
    15     8    28    1
    16    11    13    1
    17    11    26    1
    18    11    27    1
    19    13    14    1
    20    14    15    1
    21    14    16    1
    22    14    31    1
    23    16    17    1
    24    16    20    2
    25    17    18    1
    26    17    19    1
    27    17    32    1
    28    20    21    1
    29    20    22    1
    30    22    23    1
    31    22    24    1
    32    22    25    1
    33    32    33    1
    34    32    34    1
    35    13    35    1
    36    35    36    1
    37    13    37    1
    38    32    38    1
    39    38    39    1
    40    38    40    1
    41    38    41    1
@<TRIPOS>SUBSTRUCTURE
     1 1           1 GROUP             0 ****  ****    0  
@<TRIPOS>MOLECULE
Molecule Name_00001_00295
    41    41     1     0     0
SMALL
NO_CHARGES
****
Generated from the CSD

@<TRIPOS>ATOM
     1 C5      -5.5552   0.2749  -0.2468   C.ar      1 1      0.0000
     2 C4      -4.8140  -0.2159  -1.3000   C.ar      1 1      0.0000
     3 C3      -3.4617  -0.4686  -1.1408   C.ar      1 1      0.0000
     4 C8      -2.8336  -0.2347   0.0728   C.ar      1 1      0.0000
     5 C7      -3.5911   0.2602   1.1232   C.ar      1 1      0.0000
     6 C6      -4.9435   0.5132   0.9650   C.ar      1 1      0.0000
     7 H4      -5.2911  -0.4048  -2.2560   H         1 1      0.0000
     8 C9      -1.3588  -0.5072   0.2450   C.3       1 1      0.0000
     9 H7      -3.1187   0.4517   2.0809   H         1 1      0.0000
    10 H6      -5.5228   0.8999   1.7969   H         1 1      0.0000
    11 C10     -0.5493   0.7490   0.5607   C.3       1 1      0.0000
    12 H9A     -1.2231  -1.2325   1.0567   H         1 1      0.0000
    13 C11      0.9441   0.5319   0.7443   C.3       1 1      0.0000
    14 C12      1.6346   0.1876  -0.5709   C.3       1 1      0.0000
    15 H12A     1.6833   1.0874  -1.1964   H         1 1      0.0000
    16 C13      3.0205  -0.3488  -0.3783   C.2       1 1      0.0000
    17 C14      3.8193   0.1942   0.7684   C.3       1 1      0.0000
    18 H14B     4.6265  -0.5116   1.0006   H         1 1      0.0000
    19 H14A     3.1768   0.2654   1.6544   H         1 1      0.0000
    20 N        3.5029  -1.2759  -1.1815   N.pl3     1 1      0.0000
    21 HN       2.8598  -1.6536  -1.8772   H         1 1      0.0000
    22 C        4.8099  -1.9104  -1.0916   C.3       1 1      0.0000
    23 H1A      4.8304  -2.8342  -1.6659   H         1 1      0.0000
    24 H1C      5.5849  -1.2529  -1.4799   H         1 1      0.0000
    25 H1B      5.0541  -2.1480  -0.0585   H         1 1      0.0000
    26 H10A    -0.6960   1.4681  -0.2547   H         1 1      0.0000
    27 H10B    -0.9491   1.1969   1.4788   H         1 1      0.0000
    28 H9B     -0.9705  -0.9601  -0.6756   H         1 1      0.0000
    29 H5      -6.6147   0.4727  -0.3711   H         1 1      0.0000
    30 H3      -2.8868  -0.8544  -1.9761   H         1 1      0.0000
    31 H12B     1.0340  -0.5585  -1.1057   H         1 1      0.0000
    32 C15      4.4273   1.5562   0.4891   C.3       1 1      0.0000
    33 H15A     3.6255   2.2664   0.2521   H         1 1      0.0000
    34 H15C     5.0814   1.4852  -0.3887   H         1 1      0.0000
    35 OH       1.5252   1.7238   1.2804   O.3       1 1      0.0000
    36 OH1      1.0979   1.9394   2.1458   H         1 1      0.0000
    37 H22      1.1000  -0.2940   1.4553   H         1 1      0.0000
    38 C16      5.2246   2.0819   1.6603   C.3       1 1      0.0000
    39 H16C     6.0421   1.4068   1.9045   H         1 1      0.0000
    40 H16A     5.6476   3.0579   1.4319   H         1 1      0.0000
    41 H16B     4.5943   2.1835   2.5414   H         1 1      0.0000
@<TRIPOS>BOND
     1     1     2   ar
     2     1     6   ar
     3     1    29    1
     4     2     3   ar
     5     2     7    1
     6     3     4   ar
     7     3    30    1
     8     4     5   ar
     9     4     8    1
    10     5     6   ar
    11     5     9    1
    12     6    10    1
    13     8    11    1
    14     8    12    1
    15     8    28    1
    16    11    13    1
    17    11    26    1
    18    11    27    1
    19    13    14    1
    20    14    15    1
    21    14    16    1
    22    14    31    1
    23    16    17    1
    24    16    20    2
    25    17    18    1
    26    17    19    1
    27    17    32    1
    28    20    21    1
    29    20    22    1
    30    22    23    1
    31    22    24    1
    32    22    25    1
    33    32    33    1
    34    32    34    1
    35    13    35    1
    36    35    36    1
    37    13    37    1
    38    32    38    1
    39    38    39    1
    40    38    40    1
    41    38    41    1
@<TRIPOS>SUBSTRUCTURE
     1 1           1 GROUP             0 ****  ****    0  
@<TRIPOS>MOLECULE
Molecule Name_00001_00296
    41    41     1     0     0
SMALL
NO_CHARGES
****
Generated from the CSD

@<TRIPOS>ATOM
     1 C5      -5.5187   0.1315  -0.0810   C.ar      1 1      0.0000
     2 C4      -4.8206  -0.6287  -0.9942   C.ar      1 1      0.0000
     3 C3      -3.4513  -0.7896  -0.8633   C.ar      1 1      0.0000
     4 C8      -2.7629  -0.1936   0.1822   C.ar      1 1      0.0000
     5 C7      -3.4778   0.5694   1.0927   C.ar      1 1      0.0000
     6 C6      -4.8471   0.7308   0.9626   C.ar      1 1      0.0000
     7 H4      -5.3449  -1.1023  -1.8177   H         1 1      0.0000
     8 C9      -1.2699  -0.3665   0.3228   C.3       1 1      0.0000
     9 H7      -2.9581   1.0458   1.9174   H         1 1      0.0000
    10 H6      -5.3924   1.3305   1.6839   H         1 1      0.0000
    11 C10     -0.4995   0.9468   0.2007   C.3       1 1      0.0000
    12 H9A     -1.0541  -0.8174   1.2992   H         1 1      0.0000
    13 C11      1.0103   0.8306   0.3346   C.3       1 1      0.0000
    14 C12      1.6357   0.1320  -0.8677   C.3       1 1      0.0000
    15 H12A     1.5631   0.7901  -1.7424   H         1 1      0.0000
    16 C13      3.0729  -0.2310  -0.6480   C.2       1 1      0.0000
    17 C14      3.9474   0.7831   0.0263   C.3       1 1      0.0000
    18 H14B     3.6114   1.7862  -0.2638   H         1 1      0.0000
    19 H14A     4.9784   0.6638  -0.3286   H         1 1      0.0000
    20 N        3.5364  -1.4072  -1.0210   N.pl3     1 1      0.0000
    21 HN       2.8527  -2.0694  -1.3876   H         1 1      0.0000
    22 C        4.8919  -1.9056  -0.8390   C.3       1 1      0.0000
    23 H1A      4.8867  -2.9770  -0.6496   H         1 1      0.0000
    24 H1C      5.4926  -1.7216  -1.7273   H         1 1      0.0000
    25 H1B      5.3745  -1.4148   0.0034   H         1 1      0.0000
    26 H10A    -0.7263   1.3904  -0.7767   H         1 1      0.0000
    27 H10B    -0.8635   1.6348   0.9737   H         1 1      0.0000
    28 H9B     -0.9175  -1.0603  -0.4505   H         1 1      0.0000
    29 H5      -6.5915   0.2575  -0.1831   H         1 1      0.0000
    30 H3      -2.9106  -1.3896  -1.5878   H         1 1      0.0000
    31 H12B     1.0667  -0.7796  -1.0878   H         1 1      0.0000
    32 C15      3.9321   0.6821   1.5403   C.3       1 1      0.0000
    33 H15A     4.2349  -0.3298   1.8365   H         1 1      0.0000
    34 H15C     2.9090   0.8441   1.9015   H         1 1      0.0000
    35 OH       1.5689   2.1416   0.4577   O.3       1 1      0.0000
    36 OH1      1.1847   2.5914   1.2502   H         1 1      0.0000
    37 H22      1.2448   0.2544   1.2431   H         1 1      0.0000
    38 C16      4.8534   1.6861   2.1937   C.3       1 1      0.0000
    39 H16C     4.5627   2.7020   1.9345   H         1 1      0.0000
    40 H16A     4.8220   1.5905   3.2770   H         1 1      0.0000
    41 H16B     5.8809   1.5344   1.8697   H         1 1      0.0000
@<TRIPOS>BOND
     1     1     2   ar
     2     1     6   ar
     3     1    29    1
     4     2     3   ar
     5     2     7    1
     6     3     4   ar
     7     3    30    1
     8     4     5   ar
     9     4     8    1
    10     5     6   ar
    11     5     9    1
    12     6    10    1
    13     8    11    1
    14     8    12    1
    15     8    28    1
    16    11    13    1
    17    11    26    1
    18    11    27    1
    19    13    14    1
    20    14    15    1
    21    14    16    1
    22    14    31    1
    23    16    17    1
    24    16    20    2
    25    17    18    1
    26    17    19    1
    27    17    32    1
    28    20    21    1
    29    20    22    1
    30    22    23    1
    31    22    24    1
    32    22    25    1
    33    32    33    1
    34    32    34    1
    35    13    35    1
    36    35    36    1
    37    13    37    1
    38    32    38    1
    39    38    39    1
    40    38    40    1
    41    38    41    1
@<TRIPOS>SUBSTRUCTURE
     1 1           1 GROUP             0 ****  ****    0  
@<TRIPOS>MOLECULE
Molecule Name_00001_00297
    41    41     1     0     0
SMALL
NO_CHARGES
****
Generated from the CSD

@<TRIPOS>ATOM
     1 C5      -5.5213   0.8437  -0.0208   C.ar      1 1      0.0000
     2 C4      -4.5654   1.2122  -0.9427   C.ar      1 1      0.0000
     3 C3      -3.2979   0.6565  -0.8905   C.ar      1 1      0.0000
     4 C8      -2.9703  -0.2748   0.0830   C.ar      1 1      0.0000
     5 C7      -3.9413  -0.6352   1.0045   C.ar      1 1      0.0000
     6 C6      -5.2091  -0.0800   0.9532   C.ar      1 1      0.0000
     7 H4      -4.8063   1.9394  -1.7111   H         1 1      0.0000
     8 C9      -1.5877  -0.8778   0.1415   C.3       1 1      0.0000
     9 H7      -3.7052  -1.3611   1.7755   H         1 1      0.0000
    10 H6      -5.9582  -0.3730   1.6813   H         1 1      0.0000
    11 C10     -0.4819   0.1678   0.2714   C.3       1 1      0.0000
    12 H9A     -1.5338  -1.5624   0.9970   H         1 1      0.0000
    13 C11      0.9327  -0.3853   0.3348   C.3       1 1      0.0000
    14 C12      1.9474   0.5773  -0.2723   C.3       1 1      0.0000
    15 H12A     1.9680   1.4987   0.3228   H         1 1      0.0000
    16 C13      3.3306   0.0041  -0.3326   C.2       1 1      0.0000
    17 C14      4.4108   0.8636  -0.9176   C.3       1 1      0.0000
    18 H14B     3.9943   1.4265  -1.7620   H         1 1      0.0000
    19 H14A     5.2100   0.2225  -1.3092   H         1 1      0.0000
    20 N        3.5810  -1.2044   0.1303   N.pl3     1 1      0.0000
    21 HN       2.8084  -1.6823   0.5939   H         1 1      0.0000
    22 C        4.8749  -1.8700   0.1694   C.3       1 1      0.0000
    23 H1A      4.9605  -2.4950   1.0559   H         1 1      0.0000
    24 H1C      5.0093  -2.5029  -0.7054   H         1 1      0.0000
    25 H1B      5.6836  -1.1426   0.1882   H         1 1      0.0000
    26 H10A    -0.5483   0.8487  -0.5861   H         1 1      0.0000
    27 H10B    -0.6650   0.7543   1.1802   H         1 1      0.0000
    28 H9B     -1.4172  -1.4665  -0.7683   H         1 1      0.0000
    29 H5      -6.5144   1.2787  -0.0615   H         1 1      0.0000
    30 H3      -2.5522   0.9536  -1.6204   H         1 1      0.0000
    31 H12B     1.6262   0.8426  -1.2871   H         1 1      0.0000
    32 C15      5.0068   1.8437   0.0758   C.3       1 1      0.0000
    33 H15A     5.8762   2.3337  -0.3796   H         1 1      0.0000
    34 H15C     5.3571   1.2937   0.9580   H         1 1      0.0000
    35 OH       1.2768  -0.6279   1.7017   O.3       1 1      0.0000
    36 OH1      0.6360  -1.2705   2.0947   H         1 1      0.0000
    37 H22      0.9692  -1.3367  -0.2182   H         1 1      0.0000
    38 C16      4.0150   2.8979   0.5102   C.3       1 1      0.0000
    39 H16C     3.3799   2.5236   1.3103   H         1 1      0.0000
    40 H16A     4.5295   3.7854   0.8728   H         1 1      0.0000
    41 H16B     3.3763   3.1920  -0.3201   H         1 1      0.0000
@<TRIPOS>BOND
     1     1     2   ar
     2     1     6   ar
     3     1    29    1
     4     2     3   ar
     5     2     7    1
     6     3     4   ar
     7     3    30    1
     8     4     5   ar
     9     4     8    1
    10     5     6   ar
    11     5     9    1
    12     6    10    1
    13     8    11    1
    14     8    12    1
    15     8    28    1
    16    11    13    1
    17    11    26    1
    18    11    27    1
    19    13    14    1
    20    14    15    1
    21    14    16    1
    22    14    31    1
    23    16    17    1
    24    16    20    2
    25    17    18    1
    26    17    19    1
    27    17    32    1
    28    20    21    1
    29    20    22    1
    30    22    23    1
    31    22    24    1
    32    22    25    1
    33    32    33    1
    34    32    34    1
    35    13    35    1
    36    35    36    1
    37    13    37    1
    38    32    38    1
    39    38    39    1
    40    38    40    1
    41    38    41    1
@<TRIPOS>SUBSTRUCTURE
     1 1           1 GROUP             0 ****  ****    0  
@<TRIPOS>MOLECULE
Molecule Name_00001_00298
    41    41     1     0     0
SMALL
NO_CHARGES
****
Generated from the CSD

@<TRIPOS>ATOM
     1 C5      -5.6391   0.7050  -0.1679   C.ar      1 1      0.0000
     2 C4      -4.6961   0.9291  -1.1477   C.ar      1 1      0.0000
     3 C3      -3.4106   0.4348  -1.0019   C.ar      1 1      0.0000
     4 C8      -3.0519  -0.2901   0.1241   C.ar      1 1      0.0000
     5 C7      -4.0103  -0.5068   1.1022   C.ar      1 1      0.0000
     6 C6      -5.2960  -0.0129   0.9573   C.ar      1 1      0.0000
     7 H4      -4.9614   1.4940  -2.0352   H         1 1      0.0000
     8 C9      -1.6497  -0.8260   0.2841   C.3       1 1      0.0000
     9 H7      -3.7499  -1.0703   1.9921   H         1 1      0.0000
    10 H6      -6.0349  -0.1916   1.7315   H         1 1      0.0000
    11 C10     -0.5798   0.2618   0.2127   C.3       1 1      0.0000
    12 H9A     -1.5729  -1.3393   1.2506   H         1 1      0.0000
    13 C11      0.8526  -0.2230   0.3681   C.3       1 1      0.0000
    14 C12      1.8343   0.6446  -0.4118   C.3       1 1      0.0000
    15 H12A     1.8223   1.6604   0.0022   H         1 1      0.0000
    16 C13      3.2366   0.1177  -0.3719   C.2       1 1      0.0000
    17 C14      4.2913   0.9023  -1.0928   C.3       1 1      0.0000
    18 H14B     3.8730   1.2685  -2.0385   H         1 1      0.0000
    19 H14A     5.1307   0.2398  -1.3366   H         1 1      0.0000
    20 N        3.5243  -0.9853   0.2899   N.pl3     1 1      0.0000
    21 HN       2.7650  -1.4041   0.8268   H         1 1      0.0000
    22 C        4.8398  -1.5895   0.4433   C.3       1 1      0.0000
    23 H1A      4.9486  -2.0305   1.4320   H         1 1      0.0000
    24 H1C      4.9925  -2.3731  -0.2958   H         1 1      0.0000
    25 H1B      5.6239  -0.8463   0.3155   H         1 1      0.0000
    26 H10A    -0.6691   0.7707  -0.7549   H         1 1      0.0000
    27 H10B    -0.7827   0.9991   0.9993   H         1 1      0.0000
    28 H9B     -1.4594  -1.5660  -0.5029   H         1 1      0.0000
    29 H5      -6.6464   1.0919  -0.2819   H         1 1      0.0000
    30 H3      -2.6753   0.6170  -1.7786   H         1 1      0.0000
    31 H12B     1.5056   0.7062  -1.4566   H         1 1      0.0000
    32 C15      4.8116   2.0860  -0.2986   C.3       1 1      0.0000
    33 H15A     3.9696   2.7334  -0.0243   H         1 1      0.0000
    34 H15C     5.4919   2.6715  -0.9293   H         1 1      0.0000
    35 OH       1.2045  -0.1984   1.7542   O.3       1 1      0.0000
    36 OH1      0.5857  -0.7786   2.2626   H         1 1      0.0000
    37 H22      0.9212  -1.2581  -0.0007   H         1 1      0.0000
    38 C16      5.5398   1.6622   0.9560   C.3       1 1      0.0000
    39 H16C     6.3950   1.0353   0.7124   H         1 1      0.0000
    40 H16A     5.9009   2.5299   1.5041   H         1 1      0.0000
    41 H16B     4.8811   1.0969   1.6119   H         1 1      0.0000
@<TRIPOS>BOND
     1     1     2   ar
     2     1     6   ar
     3     1    29    1
     4     2     3   ar
     5     2     7    1
     6     3     4   ar
     7     3    30    1
     8     4     5   ar
     9     4     8    1
    10     5     6   ar
    11     5     9    1
    12     6    10    1
    13     8    11    1
    14     8    12    1
    15     8    28    1
    16    11    13    1
    17    11    26    1
    18    11    27    1
    19    13    14    1
    20    14    15    1
    21    14    16    1
    22    14    31    1
    23    16    17    1
    24    16    20    2
    25    17    18    1
    26    17    19    1
    27    17    32    1
    28    20    21    1
    29    20    22    1
    30    22    23    1
    31    22    24    1
    32    22    25    1
    33    32    33    1
    34    32    34    1
    35    13    35    1
    36    35    36    1
    37    13    37    1
    38    32    38    1
    39    38    39    1
    40    38    40    1
    41    38    41    1
@<TRIPOS>SUBSTRUCTURE
     1 1           1 GROUP             0 ****  ****    0  
@<TRIPOS>MOLECULE
Molecule Name_00001_00299
    41    41     1     0     0
SMALL
NO_CHARGES
****
Generated from the CSD

@<TRIPOS>ATOM
     1 C5      -5.5971   0.5698   0.4328   C.ar      1 1      0.0000
     2 C4      -4.5976   1.4597   0.7621   C.ar      1 1      0.0000
     3 C3      -3.2933   1.2195   0.3632   C.ar      1 1      0.0000
     4 C8      -2.9719   0.0877  -0.3702   C.ar      1 1      0.0000
     5 C7      -3.9872  -0.7993  -0.6933   C.ar      1 1      0.0000
     6 C6      -5.2918  -0.5600  -0.2949   C.ar      1 1      0.0000
     7 H4      -4.8330   2.3504   1.3352   H         1 1      0.0000
     8 C9      -1.5495  -0.1754  -0.8021   C.3       1 1      0.0000
     9 H7      -3.7569  -1.6920  -1.2654   H         1 1      0.0000
    10 H6      -6.0753  -1.2636  -0.5562   H         1 1      0.0000
    11 C10     -0.5671  -0.2251   0.3664   C.3       1 1      0.0000
    12 H9A     -1.5119  -1.1302  -1.3409   H         1 1      0.0000
    13 C11      0.8817  -0.4876  -0.0121   C.3       1 1      0.0000
    14 C12      1.8522   0.1820   0.9546   C.3       1 1      0.0000
    15 H12A     1.7256  -0.2576   1.9516   H         1 1      0.0000
    16 C13      3.2838   0.0383   0.5358   C.2       1 1      0.0000
    17 C14      4.3286   0.6451   1.4234   C.3       1 1      0.0000
    18 H14B     5.2772   0.1186   1.2616   H         1 1      0.0000
    19 H14A     4.0423   0.4967   2.4718   H         1 1      0.0000
    20 N        3.6028  -0.6146  -0.5639   N.pl3     1 1      0.0000
    21 HN       2.8376  -1.0733  -1.0580   H         1 1      0.0000
    22 C        4.9450  -0.8619  -1.0703   C.3       1 1      0.0000
    23 H1A      4.9382  -1.6643  -1.8050   H         1 1      0.0000
    24 H1C      5.3476   0.0298  -1.5463   H         1 1      0.0000
    25 H1B      5.6163  -1.1470  -0.2631   H         1 1      0.0000
    26 H10A    -0.6166   0.7321   0.9000   H         1 1      0.0000
    27 H10B    -0.8918  -1.0119   1.0585   H         1 1      0.0000
    28 H9B     -1.2371   0.6131  -1.4979   H         1 1      0.0000
    29 H5      -6.6191   0.7578   0.7449   H         1 1      0.0000
    30 H3      -2.5133   1.9258   0.6280   H         1 1      0.0000
    31 H12B     1.6066   1.2488   1.0266   H         1 1      0.0000
    32 C15      4.5444   2.1267   1.1761   C.3       1 1      0.0000
    33 H15A     5.2357   2.5206   1.9313   H         1 1      0.0000
    34 H15C     3.5889   2.6535   1.2902   H         1 1      0.0000
    35 OH       1.1154  -1.8987  -0.0082   O.3       1 1      0.0000
    36 OH1      0.5049  -2.3365  -0.6513   H         1 1      0.0000
    37 H22      1.0622  -0.0972  -1.0256   H         1 1      0.0000
    38 C16      5.1030   2.4052  -0.2002   C.3       1 1      0.0000
    39 H16C     4.4261   2.0439  -0.9715   H         1 1      0.0000
    40 H16A     5.2472   3.4733  -0.3490   H         1 1      0.0000
    41 H16B     6.0634   1.9117  -0.3337   H         1 1      0.0000
@<TRIPOS>BOND
     1     1     2   ar
     2     1     6   ar
     3     1    29    1
     4     2     3   ar
     5     2     7    1
     6     3     4   ar
     7     3    30    1
     8     4     5   ar
     9     4     8    1
    10     5     6   ar
    11     5     9    1
    12     6    10    1
    13     8    11    1
    14     8    12    1
    15     8    28    1
    16    11    13    1
    17    11    26    1
    18    11    27    1
    19    13    14    1
    20    14    15    1
    21    14    16    1
    22    14    31    1
    23    16    17    1
    24    16    20    2
    25    17    18    1
    26    17    19    1
    27    17    32    1
    28    20    21    1
    29    20    22    1
    30    22    23    1
    31    22    24    1
    32    22    25    1
    33    32    33    1
    34    32    34    1
    35    13    35    1
    36    35    36    1
    37    13    37    1
    38    32    38    1
    39    38    39    1
    40    38    40    1
    41    38    41    1
@<TRIPOS>SUBSTRUCTURE
     1 1           1 GROUP             0 ****  ****    0  
@<TRIPOS>MOLECULE
Molecule Name_00001_00300
    41    41     1     0     0
SMALL
NO_CHARGES
****
Generated from the CSD

@<TRIPOS>ATOM
     1 C5      -5.4768   0.6339   0.5717   C.ar      1 1      0.0000
     2 C4      -4.4507   1.5185   0.8247   C.ar      1 1      0.0000
     3 C3      -3.1695   1.2444   0.3759   C.ar      1 1      0.0000
     4 C8      -2.8981   0.0837  -0.3320   C.ar      1 1      0.0000
     5 C7      -3.9396  -0.7976  -0.5782   C.ar      1 1      0.0000
     6 C6      -5.2211  -0.5245  -0.1298   C.ar      1 1      0.0000
     7 H4      -4.6470   2.4316   1.3769   H         1 1      0.0000
     8 C9      -1.5008  -0.2162  -0.8182   C.3       1 1      0.0000
     9 H7      -3.7483  -1.7126  -1.1290   H         1 1      0.0000
    10 H6      -6.0256  -1.2241  -0.3312   H         1 1      0.0000
    11 C10     -0.4668  -0.2420   0.3057   C.3       1 1      0.0000
    12 H9A     -1.5013  -1.1891  -1.3250   H         1 1      0.0000
    13 C11      0.9593  -0.5399  -0.1285   C.3       1 1      0.0000
    14 C12      1.9823   0.1466   0.7698   C.3       1 1      0.0000
    15 H12A     1.8941  -0.2560   1.7864   H         1 1      0.0000
    16 C13      3.3913  -0.0355   0.2932   C.2       1 1      0.0000
    17 C14      4.4852   0.5703   1.1204   C.3       1 1      0.0000
    18 H14B     5.4092   0.0036   0.9516   H         1 1      0.0000
    19 H14A     4.2288   0.4765   2.1827   H         1 1      0.0000
    20 N        3.6496  -0.7195  -0.8035   N.pl3     1 1      0.0000
    21 HN       2.8549  -1.1739  -1.2532   H         1 1      0.0000
    22 C        4.9634  -1.0053  -1.3613   C.3       1 1      0.0000
    23 H1A      4.9193  -1.8592  -2.0340   H         1 1      0.0000
    24 H1C      5.3380  -0.1514  -1.9220   H         1 1      0.0000
    25 H1B      5.6775  -1.2316  -0.5724   H         1 1      0.0000
    26 H10A    -0.4783   0.7334   0.8077   H         1 1      0.0000
    27 H10B    -0.7707  -0.9998   1.0384   H         1 1      0.0000
    28 H9B     -1.2092   0.5433  -1.5541   H         1 1      0.0000
    29 H5      -6.4807   0.8484   0.9229   H         1 1      0.0000
    30 H3      -2.3683   1.9469   0.5807   H         1 1      0.0000
    31 H12B     1.7564   1.2191   0.8149   H         1 1      0.0000
    32 C15      4.7438   2.0314   0.8025   C.3       1 1      0.0000
    33 H15A     4.9472   2.1356  -0.2704   H         1 1      0.0000
    34 H15C     5.6362   2.3655   1.3460   H         1 1      0.0000
    35 OH       1.1729  -1.9535  -0.0866   O.3       1 1      0.0000
    36 OH1      0.5275  -2.4031  -0.6861   H         1 1      0.0000
    37 H22      1.0989  -0.1868  -1.1619   H         1 1      0.0000
    38 C16      3.5766   2.9167   1.1737   C.3       1 1      0.0000
    39 H16C     3.1044   2.5682   2.0898   H         1 1      0.0000
    40 H16A     3.9048   3.9421   1.3304   H         1 1      0.0000
    41 H16B     2.8271   2.9174   0.3851   H         1 1      0.0000
@<TRIPOS>BOND
     1     1     2   ar
     2     1     6   ar
     3     1    29    1
     4     2     3   ar
     5     2     7    1
     6     3     4   ar
     7     3    30    1
     8     4     5   ar
     9     4     8    1
    10     5     6   ar
    11     5     9    1
    12     6    10    1
    13     8    11    1
    14     8    12    1
    15     8    28    1
    16    11    13    1
    17    11    26    1
    18    11    27    1
    19    13    14    1
    20    14    15    1
    21    14    16    1
    22    14    31    1
    23    16    17    1
    24    16    20    2
    25    17    18    1
    26    17    19    1
    27    17    32    1
    28    20    21    1
    29    20    22    1
    30    22    23    1
    31    22    24    1
    32    22    25    1
    33    32    33    1
    34    32    34    1
    35    13    35    1
    36    35    36    1
    37    13    37    1
    38    32    38    1
    39    38    39    1
    40    38    40    1
    41    38    41    1
@<TRIPOS>SUBSTRUCTURE
     1 1           1 GROUP             0 ****  ****    0  
@<TRIPOS>MOLECULE
Molecule Name_00001_00301
    41    41     1     0     0
SMALL
NO_CHARGES
****
Generated from the CSD

@<TRIPOS>ATOM
     1 C5      -4.9569  -0.4364   0.6317   C.ar      1 1      0.0000
     2 C4      -4.1591   0.4856   1.2742   C.ar      1 1      0.0000
     3 C3      -2.9828   0.9181   0.6850   C.ar      1 1      0.0000
     4 C8      -2.5896   0.4353  -0.5537   C.ar      1 1      0.0000
     5 C7      -3.4013  -0.4927  -1.1880   C.ar      1 1      0.0000
     6 C6      -4.5778  -0.9258  -0.5996   C.ar      1 1      0.0000
     7 H4      -4.4533   0.8735   2.2439   H         1 1      0.0000
     8 C9      -1.3057   0.9045  -1.1942   C.3       1 1      0.0000
     9 H7      -3.1111  -0.8844  -2.1573   H         1 1      0.0000
    10 H6      -5.2024  -1.6520  -1.1091   H         1 1      0.0000
    11 C10     -0.0875   0.0900  -0.7633   C.3       1 1      0.0000
    12 H9A     -1.4086   0.8431  -2.2846   H         1 1      0.0000
    13 C11      0.3372   0.2710   0.6851   C.3       1 1      0.0000
    14 C12      1.5452  -0.5910   1.0354   C.3       1 1      0.0000
    15 H12A     1.2583  -1.6485   0.9828   H         1 1      0.0000
    16 C13      2.7122  -0.3558   0.1253   C.2       1 1      0.0000
    17 C14      3.5453   0.8664   0.3701   C.3       1 1      0.0000
    18 H14B     2.8802   1.7002   0.6268   H         1 1      0.0000
    19 H14A     4.0721   1.1354  -0.5536   H         1 1      0.0000
    20 N        2.9975  -1.2070  -0.8399   N.pl3     1 1      0.0000
    21 HN       2.4349  -2.0569  -0.8770   H         1 1      0.0000
    22 C        4.1142  -1.1250  -1.7701   C.3       1 1      0.0000
    23 H1A      4.4861  -2.1178  -2.0145   H         1 1      0.0000
    24 H1C      3.8101  -0.6399  -2.6953   H         1 1      0.0000
    25 H1B      4.9335  -0.5521  -1.3411   H         1 1      0.0000
    26 H10A    -0.3063  -0.9721  -0.9288   H         1 1      0.0000
    27 H10B     0.7570   0.3629  -1.4081   H         1 1      0.0000
    28 H9B     -1.1417   1.9573  -0.9332   H         1 1      0.0000
    29 H5      -5.8787  -0.7752   1.0929   H         1 1      0.0000
    30 H3      -2.3613   1.6438   1.1991   H         1 1      0.0000
    31 H12B     1.8490  -0.3786   2.0678   H         1 1      0.0000
    32 C15      4.5608   0.6915   1.4841   C.3       1 1      0.0000
    33 H15A     5.2283  -0.1425   1.2347   H         1 1      0.0000
    34 H15C     4.0360   0.4337   2.4123   H         1 1      0.0000
    35 OH       0.6629   1.6460   0.9063   O.3       1 1      0.0000
    36 OH1     -0.1406   2.2036   0.7598   H         1 1      0.0000
    37 H22     -0.5019  -0.0085   1.3408   H         1 1      0.0000
    38 C16      5.3869   1.9365   1.7107   C.3       1 1      0.0000
    39 H16C     4.7514   2.7770   1.9817   H         1 1      0.0000
    40 H16A     6.1050   1.7820   2.5133   H         1 1      0.0000
    41 H16B     5.9368   2.2036   0.8107   H         1 1      0.0000
@<TRIPOS>BOND
     1     1     2   ar
     2     1     6   ar
     3     1    29    1
     4     2     3   ar
     5     2     7    1
     6     3     4   ar
     7     3    30    1
     8     4     5   ar
     9     4     8    1
    10     5     6   ar
    11     5     9    1
    12     6    10    1
    13     8    11    1
    14     8    12    1
    15     8    28    1
    16    11    13    1
    17    11    26    1
    18    11    27    1
    19    13    14    1
    20    14    15    1
    21    14    16    1
    22    14    31    1
    23    16    17    1
    24    16    20    2
    25    17    18    1
    26    17    19    1
    27    17    32    1
    28    20    21    1
    29    20    22    1
    30    22    23    1
    31    22    24    1
    32    22    25    1
    33    32    33    1
    34    32    34    1
    35    13    35    1
    36    35    36    1
    37    13    37    1
    38    32    38    1
    39    38    39    1
    40    38    40    1
    41    38    41    1
@<TRIPOS>SUBSTRUCTURE
     1 1           1 GROUP             0 ****  ****    0  
@<TRIPOS>MOLECULE
Molecule Name_00001_00302
    41    41     1     0     0
SMALL
NO_CHARGES
****
Generated from the CSD

@<TRIPOS>ATOM
     1 C5      -4.7710   1.0345  -0.3274   C.ar      1 1      0.0000
     2 C4      -4.1506   0.0378  -1.0491   C.ar      1 1      0.0000
     3 C3      -3.0058  -0.5672  -0.5577   C.ar      1 1      0.0000
     4 C8      -2.4674  -0.1842   0.6612   C.ar      1 1      0.0000
     5 C7      -3.1014   0.8205   1.3758   C.ar      1 1      0.0000
     6 C6      -4.2462   1.4261   0.8853   C.ar      1 1      0.0000
     7 H4      -4.5598  -0.2736  -2.0045   H         1 1      0.0000
     8 C9      -1.2177  -0.8416   1.1949   C.3       1 1      0.0000
     9 H7      -2.6956   1.1363   2.3313   H         1 1      0.0000
    10 H6      -4.7310   2.2106   1.4569   H         1 1      0.0000
    11 C10      0.0668  -0.1814   0.6978   C.3       1 1      0.0000
    12 H9A     -1.2367  -0.8051   2.2912   H         1 1      0.0000
    13 C11      0.3633  -0.3665  -0.7816   C.3       1 1      0.0000
    14 C12      1.6063   0.4040  -1.2132   C.3       1 1      0.0000
    15 H12A     1.4209   1.4787  -1.0948   H         1 1      0.0000
    16 C13      2.8260   0.0294  -0.4272   C.2       1 1      0.0000
    17 C14      3.0549   0.7377   0.8742   C.3       1 1      0.0000
    18 H14B     3.6413   0.0846   1.5322   H         1 1      0.0000
    19 H14A     2.0891   0.9180   1.3619   H         1 1      0.0000
    20 N        3.6505  -0.9016  -0.8639   N.pl3     1 1      0.0000
    21 HN       3.3702  -1.3956  -1.7110   H         1 1      0.0000
    22 C        4.8461  -1.3894  -0.1919   C.3       1 1      0.0000
    23 H1A      5.1799  -2.3271  -0.6312   H         1 1      0.0000
    24 H1C      5.6566  -0.6685  -0.2761   H         1 1      0.0000
    25 H1B      4.6533  -1.5599   0.8651   H         1 1      0.0000
    26 H10A     0.0050   0.8939   0.9057   H         1 1      0.0000
    27 H10B     0.9089  -0.5862   1.2727   H         1 1      0.0000
    28 H9B     -1.2153  -1.8972   0.8962   H         1 1      0.0000
    29 H5      -5.6681   1.5085  -0.7119   H         1 1      0.0000
    30 H3      -2.5243  -1.3505  -1.1337   H         1 1      0.0000
    31 H12B     1.7943   0.2129  -2.2769   H         1 1      0.0000
    32 C15      3.7850   2.0593   0.7219   C.3       1 1      0.0000
    33 H15A     3.2047   2.7171   0.0630   H         1 1      0.0000
    34 H15C     4.7565   1.8809   0.2447   H         1 1      0.0000
    35 OH       0.5595  -1.7584  -1.0464   O.3       1 1      0.0000
    36 OH1     -0.2610  -2.2582  -0.8119   H         1 1      0.0000
    37 H22     -0.4984  -0.0085  -1.3660   H         1 1      0.0000
    38 C16      4.0030   2.7526   2.0468   C.3       1 1      0.0000
    39 H16C     4.5958   2.1309   2.7145   H         1 1      0.0000
    40 H16A     4.5274   3.6956   1.9070   H         1 1      0.0000
    41 H16B     3.0528   2.9622   2.5335   H         1 1      0.0000
@<TRIPOS>BOND
     1     1     2   ar
     2     1     6   ar
     3     1    29    1
     4     2     3   ar
     5     2     7    1
     6     3     4   ar
     7     3    30    1
     8     4     5   ar
     9     4     8    1
    10     5     6   ar
    11     5     9    1
    12     6    10    1
    13     8    11    1
    14     8    12    1
    15     8    28    1
    16    11    13    1
    17    11    26    1
    18    11    27    1
    19    13    14    1
    20    14    15    1
    21    14    16    1
    22    14    31    1
    23    16    17    1
    24    16    20    2
    25    17    18    1
    26    17    19    1
    27    17    32    1
    28    20    21    1
    29    20    22    1
    30    22    23    1
    31    22    24    1
    32    22    25    1
    33    32    33    1
    34    32    34    1
    35    13    35    1
    36    35    36    1
    37    13    37    1
    38    32    38    1
    39    38    39    1
    40    38    40    1
    41    38    41    1
@<TRIPOS>SUBSTRUCTURE
     1 1           1 GROUP             0 ****  ****    0  
@<TRIPOS>MOLECULE
Molecule Name_00001_00303
    41    41     1     0     0
SMALL
NO_CHARGES
****
Generated from the CSD

@<TRIPOS>ATOM
     1 C5      -2.7179   1.8566   1.1563   C.ar      1 1      0.0000
     2 C4      -2.9550   1.7303  -0.1954   C.ar      1 1      0.0000
     3 C3      -2.6120   0.5622  -0.8556   C.ar      1 1      0.0000
     4 C8      -2.0289  -0.4944  -0.1731   C.ar      1 1      0.0000
     5 C7      -1.7951  -0.3530   1.1861   C.ar      1 1      0.0000
     6 C6      -2.1377   0.8148   1.8472   C.ar      1 1      0.0000
     7 H4      -3.4112   2.5479  -0.7437   H         1 1      0.0000
     8 C9      -1.6522  -1.7662  -0.8937   C.3       1 1      0.0000
     9 H7      -1.3382  -1.1672   1.7388   H         1 1      0.0000
    10 H6      -1.9488   0.9097   2.9114   H         1 1      0.0000
    11 C10     -0.1538  -2.0595  -0.8502   C.3       1 1      0.0000
    12 H9A     -2.1935  -2.6059  -0.4404   H         1 1      0.0000
    13 C11      0.7097  -1.1673  -1.7273   C.3       1 1      0.0000
    14 C12      0.9111   0.2126  -1.1108   C.3       1 1      0.0000
    15 H12A    -0.0689   0.6723  -0.9329   H         1 1      0.0000
    16 C13      1.6714   0.1688   0.1798   C.2       1 1      0.0000
    17 C14      1.7156   1.4232   0.9997   C.3       1 1      0.0000
    18 H14B     1.8966   1.1529   2.0473   H         1 1      0.0000
    19 H14A     0.7396   1.9214   0.9503   H         1 1      0.0000
    20 N        2.2604  -0.9409   0.5786   N.pl3     1 1      0.0000
    21 HN       2.1026  -1.7700   0.0059   H         1 1      0.0000
    22 C        2.9974  -1.1373   1.8184   C.3       1 1      0.0000
    23 H1A      3.1182  -2.1974   2.0314   H         1 1      0.0000
    24 H1C      3.9871  -0.6901   1.7533   H         1 1      0.0000
    25 H1B      2.4742  -0.6807   2.6558   H         1 1      0.0000
    26 H10A     0.1877  -1.9583   0.1873   H         1 1      0.0000
    27 H10B     0.0040  -3.1014  -1.1551   H         1 1      0.0000
    28 H9B     -1.9708  -1.6900  -1.9407   H         1 1      0.0000
    29 H5      -2.9867   2.7715   1.6739   H         1 1      0.0000
    30 H3      -2.8022   0.4727  -1.9200   H         1 1      0.0000
    31 H12B     1.4529   0.8471  -1.8231   H         1 1      0.0000
    32 C15      2.7901   2.3979   0.5544   C.3       1 1      0.0000
    33 H15A     2.6160   2.6710  -0.4936   H         1 1      0.0000
    34 H15C     3.7689   1.9061   0.6137   H         1 1      0.0000
    35 OH       1.9847  -1.7889  -1.9111   O.3       1 1      0.0000
    36 OH1      1.8625  -2.6750  -2.3329   H         1 1      0.0000
    37 H22      0.2227  -1.0516  -2.7080   H         1 1      0.0000
    38 C16      2.8136   3.6527   1.3961   C.3       1 1      0.0000
    39 H16C     3.0065   3.4135   2.4398   H         1 1      0.0000
    40 H16A     3.5921   4.3317   1.0546   H         1 1      0.0000
    41 H16B     1.8602   4.1738   1.3385   H         1 1      0.0000
@<TRIPOS>BOND
     1     1     2   ar
     2     1     6   ar
     3     1    29    1
     4     2     3   ar
     5     2     7    1
     6     3     4   ar
     7     3    30    1
     8     4     5   ar
     9     4     8    1
    10     5     6   ar
    11     5     9    1
    12     6    10    1
    13     8    11    1
    14     8    12    1
    15     8    28    1
    16    11    13    1
    17    11    26    1
    18    11    27    1
    19    13    14    1
    20    14    15    1
    21    14    16    1
    22    14    31    1
    23    16    17    1
    24    16    20    2
    25    17    18    1
    26    17    19    1
    27    17    32    1
    28    20    21    1
    29    20    22    1
    30    22    23    1
    31    22    24    1
    32    22    25    1
    33    32    33    1
    34    32    34    1
    35    13    35    1
    36    35    36    1
    37    13    37    1
    38    32    38    1
    39    38    39    1
    40    38    40    1
    41    38    41    1
@<TRIPOS>SUBSTRUCTURE
     1 1           1 GROUP             0 ****  ****    0  
@<TRIPOS>MOLECULE
Molecule Name_00001_00304
    41    41     1     0     0
SMALL
NO_CHARGES
****
Generated from the CSD

@<TRIPOS>ATOM
     1 C5      -5.3596   0.0345   0.2793   C.ar      1 1      0.0000
     2 C4      -4.5699  -1.0662   0.0257   C.ar      1 1      0.0000
     3 C3      -3.1923  -0.9736   0.1335   C.ar      1 1      0.0000
     4 C8      -2.5870   0.2196   0.4967   C.ar      1 1      0.0000
     5 C7      -3.3936   1.3189   0.7477   C.ar      1 1      0.0000
     6 C6      -4.7713   1.2274   0.6402   C.ar      1 1      0.0000
     7 H4      -5.0286  -2.0074  -0.2591   H         1 1      0.0000
     8 C9      -1.0851   0.3210   0.6109   C.3       1 1      0.0000
     9 H7      -2.9399   2.2627   1.0318   H         1 1      0.0000
    10 H6      -5.3888   2.0967   0.8405   H         1 1      0.0000
    11 C10     -0.4043   0.6623  -0.7131   C.3       1 1      0.0000
    12 H9A     -0.8356   1.0924   1.3499   H         1 1      0.0000
    13 C11      1.1105   0.7769  -0.6555   C.3       1 1      0.0000
    14 C12      1.7757  -0.5788  -0.4448   C.3       1 1      0.0000
    15 H12A     1.5669  -1.2189  -1.3109   H         1 1      0.0000
    16 C13      3.2592  -0.4773  -0.2590   C.2       1 1      0.0000
    17 C14      3.8042  -0.7404   1.1127   C.3       1 1      0.0000
    18 H14B     4.8475  -1.0666   1.0204   H         1 1      0.0000
    19 H14A     3.2406  -1.5605   1.5740   H         1 1      0.0000
    20 N        4.0478  -0.1846  -1.2737   N.pl3     1 1      0.0000
    21 HN       3.6029  -0.1118  -2.1886   H         1 1      0.0000
    22 C        5.5001  -0.0888  -1.2472   C.3       1 1      0.0000
    23 H1A      5.8446   0.7248  -1.8822   H         1 1      0.0000
    24 H1C      5.8556   0.0971  -0.2359   H         1 1      0.0000
    25 H1B      5.9550  -1.0113  -1.6016   H         1 1      0.0000
    26 H10A    -0.6644  -0.1126  -1.4447   H         1 1      0.0000
    27 H10B    -0.8098   1.6151  -1.0753   H         1 1      0.0000
    28 H9B     -0.6908  -0.6341   0.9793   H         1 1      0.0000
    29 H5      -6.4390  -0.0377   0.1953   H         1 1      0.0000
    30 H3      -2.5793  -1.8456  -0.0688   H         1 1      0.0000
    31 H12B     1.3372  -1.0591   0.4386   H         1 1      0.0000
    32 C15      3.7503   0.4701   2.0261   C.3       1 1      0.0000
    33 H15A     4.2275   1.3210   1.5244   H         1 1      0.0000
    34 H15C     4.3203   0.2577   2.9391   H         1 1      0.0000
    35 OH       1.5812   1.3443  -1.8811   O.3       1 1      0.0000
    36 OH1      1.1715   2.2349  -2.0118   H         1 1      0.0000
    37 H22      1.3867   1.4424   0.1770   H         1 1      0.0000
    38 C16      2.3354   0.8460   2.4010   C.3       1 1      0.0000
    39 H16C     2.2236   0.8977   3.4820   H         1 1      0.0000
    40 H16A     2.0714   1.8165   1.9861   H         1 1      0.0000
    41 H16B     1.6280   0.1115   2.0218   H         1 1      0.0000
@<TRIPOS>BOND
     1     1     2   ar
     2     1     6   ar
     3     1    29    1
     4     2     3   ar
     5     2     7    1
     6     3     4   ar
     7     3    30    1
     8     4     5   ar
     9     4     8    1
    10     5     6   ar
    11     5     9    1
    12     6    10    1
    13     8    11    1
    14     8    12    1
    15     8    28    1
    16    11    13    1
    17    11    26    1
    18    11    27    1
    19    13    14    1
    20    14    15    1
    21    14    16    1
    22    14    31    1
    23    16    17    1
    24    16    20    2
    25    17    18    1
    26    17    19    1
    27    17    32    1
    28    20    21    1
    29    20    22    1
    30    22    23    1
    31    22    24    1
    32    22    25    1
    33    32    33    1
    34    32    34    1
    35    13    35    1
    36    35    36    1
    37    13    37    1
    38    32    38    1
    39    38    39    1
    40    38    40    1
    41    38    41    1
@<TRIPOS>SUBSTRUCTURE
     1 1           1 GROUP             0 ****  ****    0  
@<TRIPOS>MOLECULE
Molecule Name_00001_00305
    41    41     1     0     0
SMALL
NO_CHARGES
****
Generated from the CSD

@<TRIPOS>ATOM
     1 C5      -5.5555   0.3468  -0.1447   C.ar      1 1      0.0000
     2 C4      -4.7202   0.5991  -1.2115   C.ar      1 1      0.0000
     3 C3      -3.3685   0.3115  -1.1198   C.ar      1 1      0.0000
     4 C8      -2.8351  -0.2322   0.0386   C.ar      1 1      0.0000
     5 C7      -3.6869  -0.4796   1.1042   C.ar      1 1      0.0000
     6 C6      -5.0386  -0.1924   1.0135   C.ar      1 1      0.0000
     7 H4      -5.1224   1.0239  -2.1253   H         1 1      0.0000
     8 C9      -1.3612  -0.5424   0.1394   C.3       1 1      0.0000
     9 H7      -3.2895  -0.9034   2.0206   H         1 1      0.0000
    10 H6      -5.6922  -0.3924   1.8561   H         1 1      0.0000
    11 C10     -0.5278   0.6491   0.6071   C.3       1 1      0.0000
    12 H9A     -1.2196  -1.3742   0.8405   H         1 1      0.0000
    13 C11      0.9658   0.3919   0.7264   C.3       1 1      0.0000
    14 C12      1.6247   0.2244  -0.6384   C.3       1 1      0.0000
    15 H12A     1.5399   1.1656  -1.1953   H         1 1      0.0000
    16 C13      3.0704  -0.1587  -0.5443   C.2       1 1      0.0000
    17 C14      4.0867   0.8799  -0.9131   C.3       1 1      0.0000
    18 H14B     3.7184   1.4404  -1.7812   H         1 1      0.0000
    19 H14A     5.0186   0.3837  -1.2105   H         1 1      0.0000
    20 N        3.4247  -1.3603  -0.1344   N.pl3     1 1      0.0000
    21 HN       2.6729  -1.9719   0.1833   H         1 1      0.0000
    22 C        4.7828  -1.8548   0.0391   C.3       1 1      0.0000
    23 H1A      4.8510  -2.4949   0.9162   H         1 1      0.0000
    24 H1C      5.0959  -2.4332  -0.8275   H         1 1      0.0000
    25 H1B      5.4812  -1.0304   0.1660   H         1 1      0.0000
    26 H10A    -0.6806   1.4753  -0.0982   H         1 1      0.0000
    27 H10B    -0.9027   0.9706   1.5866   H         1 1      0.0000
    28 H9B     -0.9980  -0.8685  -0.8431   H         1 1      0.0000
    29 H5      -6.6145   0.5717  -0.2163   H         1 1      0.0000
    30 H3      -2.7191   0.5143  -1.9649   H         1 1      0.0000
    31 H12B     1.0868  -0.5471  -1.2031   H         1 1      0.0000
    32 C15      4.3848   1.8578   0.2084   C.3       1 1      0.0000
    33 H15A     3.4567   2.3647   0.4999   H         1 1      0.0000
    34 H15C     5.0826   2.6217  -0.1563   H         1 1      0.0000
    35 OH       1.5744   1.4919   1.4086   O.3       1 1      0.0000
    36 OH1      1.1676   1.5909   2.3045   H         1 1      0.0000
    37 H22      1.1242  -0.5259   1.3135   H         1 1      0.0000
    38 C16      4.9807   1.1797   1.4203   C.3       1 1      0.0000
    39 H16C     5.9159   0.6857   1.1650   H         1 1      0.0000
    40 H16A     5.1836   1.9037   2.2066   H         1 1      0.0000
    41 H16B     4.2990   0.4304   1.8172   H         1 1      0.0000
@<TRIPOS>BOND
     1     1     2   ar
     2     1     6   ar
     3     1    29    1
     4     2     3   ar
     5     2     7    1
     6     3     4   ar
     7     3    30    1
     8     4     5   ar
     9     4     8    1
    10     5     6   ar
    11     5     9    1
    12     6    10    1
    13     8    11    1
    14     8    12    1
    15     8    28    1
    16    11    13    1
    17    11    26    1
    18    11    27    1
    19    13    14    1
    20    14    15    1
    21    14    16    1
    22    14    31    1
    23    16    17    1
    24    16    20    2
    25    17    18    1
    26    17    19    1
    27    17    32    1
    28    20    21    1
    29    20    22    1
    30    22    23    1
    31    22    24    1
    32    22    25    1
    33    32    33    1
    34    32    34    1
    35    13    35    1
    36    35    36    1
    37    13    37    1
    38    32    38    1
    39    38    39    1
    40    38    40    1
    41    38    41    1
@<TRIPOS>SUBSTRUCTURE
     1 1           1 GROUP             0 ****  ****    0  
@<TRIPOS>MOLECULE
Molecule Name_00001_00306
    41    41     1     0     0
SMALL
NO_CHARGES
****
Generated from the CSD

@<TRIPOS>ATOM
     1 C5      -4.2555   0.7110  -1.4941   C.ar      1 1      0.0000
     2 C4      -4.7515   0.8157  -0.2126   C.ar      1 1      0.0000
     3 C3      -4.0078   0.3549   0.8610   C.ar      1 1      0.0000
     4 C8      -2.7590  -0.2152   0.6673   C.ar      1 1      0.0000
     5 C7      -2.2730  -0.3152  -0.6273   C.ar      1 1      0.0000
     6 C6      -3.0160   0.1453  -1.7015   C.ar      1 1      0.0000
     7 H4      -5.7270   1.2600  -0.0443   H         1 1      0.0000
     8 C9      -1.9500  -0.7203   1.8375   C.3       1 1      0.0000
     9 H7      -1.2985  -0.7596  -0.8010   H         1 1      0.0000
    10 H6      -2.6214   0.0604  -2.7086   H         1 1      0.0000
    11 C10     -0.6301   0.0262   2.0214   C.3       1 1      0.0000
    12 H9A     -2.5469  -0.6205   2.7525   H         1 1      0.0000
    13 C11      0.5104  -0.4391   1.1304   C.3       1 1      0.0000
    14 C12      1.4284   0.7120   0.7342   C.3       1 1      0.0000
    15 H12A     1.9064   1.1157   1.6352   H         1 1      0.0000
    16 C13      2.4906   0.3013  -0.2398   C.2       1 1      0.0000
    17 C14      3.4627   1.3514  -0.6869   C.3       1 1      0.0000
    18 H14B     2.9198   2.2928  -0.8369   H         1 1      0.0000
    19 H14A     3.8912   1.0588  -1.6533   H         1 1      0.0000
    20 N        2.5695  -0.9431  -0.6672   N.pl3     1 1      0.0000
    21 HN       1.9266  -1.6111  -0.2421   H         1 1      0.0000
    22 C        3.5646  -1.4882  -1.5791   C.3       1 1      0.0000
    23 H1A      3.8049  -2.5166  -1.3178   H         1 1      0.0000
    24 H1C      3.1966  -1.4760  -2.6030   H         1 1      0.0000
    25 H1B      4.4827  -0.9058  -1.5426   H         1 1      0.0000
    26 H10A    -0.8064   1.0916   1.8285   H         1 1      0.0000
    27 H10B    -0.3165  -0.0778   3.0674   H         1 1      0.0000
    28 H9B     -1.7395  -1.7869   1.6909   H         1 1      0.0000
    29 H5      -4.8377   1.0721  -2.3354   H         1 1      0.0000
    30 H3      -4.4073   0.4413   1.8660   H         1 1      0.0000
    31 H12B     0.8258   1.5131   0.2886   H         1 1      0.0000
    32 C15      4.5900   1.5902   0.3005   C.3       1 1      0.0000
    33 H15A     5.1362   0.6518   0.4568   H         1 1      0.0000
    34 H15C     4.1650   1.8943   1.2651   H         1 1      0.0000
    35 OH       1.2729  -1.4275   1.8287   O.3       1 1      0.0000
    36 OH1      0.6879  -2.1882   2.0676   H         1 1      0.0000
    37 H22      0.0897  -0.8896   0.2181   H         1 1      0.0000
    38 C16      5.5550   2.6522  -0.1733   C.3       1 1      0.0000
    39 H16C     5.0437   3.6019  -0.3161   H         1 1      0.0000
    40 H16A     6.3511   2.8017   0.5532   H         1 1      0.0000
    41 H16B     6.0092   2.3661  -1.1196   H         1 1      0.0000
@<TRIPOS>BOND
     1     1     2   ar
     2     1     6   ar
     3     1    29    1
     4     2     3   ar
     5     2     7    1
     6     3     4   ar
     7     3    30    1
     8     4     5   ar
     9     4     8    1
    10     5     6   ar
    11     5     9    1
    12     6    10    1
    13     8    11    1
    14     8    12    1
    15     8    28    1
    16    11    13    1
    17    11    26    1
    18    11    27    1
    19    13    14    1
    20    14    15    1
    21    14    16    1
    22    14    31    1
    23    16    17    1
    24    16    20    2
    25    17    18    1
    26    17    19    1
    27    17    32    1
    28    20    21    1
    29    20    22    1
    30    22    23    1
    31    22    24    1
    32    22    25    1
    33    32    33    1
    34    32    34    1
    35    13    35    1
    36    35    36    1
    37    13    37    1
    38    32    38    1
    39    38    39    1
    40    38    40    1
    41    38    41    1
@<TRIPOS>SUBSTRUCTURE
     1 1           1 GROUP             0 ****  ****    0  
@<TRIPOS>MOLECULE
Molecule Name_00001_00307
    41    41     1     0     0
SMALL
NO_CHARGES
****
Generated from the CSD

@<TRIPOS>ATOM
     1 C5      -2.9544  -1.9248   0.8636   C.ar      1 1      0.0000
     2 C4      -2.7297  -0.7755   1.5903   C.ar      1 1      0.0000
     3 C3      -2.3730   0.3968   0.9450   C.ar      1 1      0.0000
     4 C8      -2.2372   0.4354  -0.4342   C.ar      1 1      0.0000
     5 C7      -2.4651  -0.7284  -1.1523   C.ar      1 1      0.0000
     6 C6      -2.8218  -1.9012  -0.5080   C.ar      1 1      0.0000
     7 H4      -2.8325  -0.7893   2.6703   H         1 1      0.0000
     8 C9      -1.8451   1.7127  -1.1368   C.3       1 1      0.0000
     9 H7      -2.3626  -0.7202  -2.2324   H         1 1      0.0000
    10 H6      -2.9974  -2.8036  -1.0844   H         1 1      0.0000
    11 C10     -0.3329   1.9015  -1.2392   C.3       1 1      0.0000
    12 H9A     -2.2736   1.7095  -2.1466   H         1 1      0.0000
    13 C11      0.3769   2.1941   0.0729   C.3       1 1      0.0000
    14 C12      1.8406   1.7688   0.0348   C.3       1 1      0.0000
    15 H12A     2.3557   2.1782   0.9126   H         1 1      0.0000
    16 C13      2.0145   0.2806   0.0166   C.2       1 1      0.0000
    17 C14      3.4143  -0.2515  -0.0554   C.3       1 1      0.0000
    18 H14B     3.9936   0.3737  -0.7460   H         1 1      0.0000
    19 H14A     3.3935  -1.2679  -0.4673   H         1 1      0.0000
    20 N        0.9706  -0.5216   0.0800   N.pl3     1 1      0.0000
    21 HN       0.0636  -0.0766   0.2194   H         1 1      0.0000
    22 C        0.9923  -1.9769   0.1078   C.3       1 1      0.0000
    23 H1A      0.1896  -2.3627   0.7328   H         1 1      0.0000
    24 H1C      0.8670  -2.3833  -0.8937   H         1 1      0.0000
    25 H1B      1.9368  -2.3420   0.5053   H         1 1      0.0000
    26 H10A     0.1002   0.9905  -1.6703   H         1 1      0.0000
    27 H10B    -0.1334   2.7281  -1.9323   H         1 1      0.0000
    28 H9B     -2.2752   2.5638  -0.5945   H         1 1      0.0000
    29 H5      -3.2342  -2.8434   1.3687   H         1 1      0.0000
    30 H3      -2.1977   1.2962   1.5261   H         1 1      0.0000
    31 H12B     2.3138   2.1947  -0.8586   H         1 1      0.0000
    32 C15      4.1199  -0.2780   1.2878   C.3       1 1      0.0000
    33 H15A     3.5446  -0.9004   1.9842   H         1 1      0.0000
    34 H15C     4.1527   0.7392   1.6972   H         1 1      0.0000
    35 OH       0.3036   3.5976   0.3387   O.3       1 1      0.0000
    36 OH1     -0.6443   3.8754   0.3884   H         1 1      0.0000
    37 H22     -0.1315   1.6489   0.8831   H         1 1      0.0000
    38 C16      5.5278  -0.8180   1.1879   C.3       1 1      0.0000
    39 H16C     6.1291  -0.2060   0.5189   H         1 1      0.0000
    40 H16A     6.0082  -0.8253   2.1641   H         1 1      0.0000
    41 H16B     5.5241  -1.8361   0.8044   H         1 1      0.0000
@<TRIPOS>BOND
     1     1     2   ar
     2     1     6   ar
     3     1    29    1
     4     2     3   ar
     5     2     7    1
     6     3     4   ar
     7     3    30    1
     8     4     5   ar
     9     4     8    1
    10     5     6   ar
    11     5     9    1
    12     6    10    1
    13     8    11    1
    14     8    12    1
    15     8    28    1
    16    11    13    1
    17    11    26    1
    18    11    27    1
    19    13    14    1
    20    14    15    1
    21    14    16    1
    22    14    31    1
    23    16    17    1
    24    16    20    2
    25    17    18    1
    26    17    19    1
    27    17    32    1
    28    20    21    1
    29    20    22    1
    30    22    23    1
    31    22    24    1
    32    22    25    1
    33    32    33    1
    34    32    34    1
    35    13    35    1
    36    35    36    1
    37    13    37    1
    38    32    38    1
    39    38    39    1
    40    38    40    1
    41    38    41    1
@<TRIPOS>SUBSTRUCTURE
     1 1           1 GROUP             0 ****  ****    0  
@<TRIPOS>MOLECULE
Molecule Name_00001_00308
    41    41     1     0     0
SMALL
NO_CHARGES
****
Generated from the CSD

@<TRIPOS>ATOM
     1 C5      -3.2724   1.3128  -1.3443   C.ar      1 1      0.0000
     2 C4      -2.9089   0.0083  -1.6003   C.ar      1 1      0.0000
     3 C3      -2.3453  -0.7658  -0.5998   C.ar      1 1      0.0000
     4 C8      -2.1387  -0.2463   0.6688   C.ar      1 1      0.0000
     5 C7      -2.5079   1.0677   0.9118   C.ar      1 1      0.0000
     6 C6      -3.0716   1.8427  -0.0880   C.ar      1 1      0.0000
     7 H4      -3.0646  -0.4131  -2.5879   H         1 1      0.0000
     8 C9      -1.5213  -1.0895   1.7582   C.3       1 1      0.0000
     9 H7      -2.3534   1.4942   1.8974   H         1 1      0.0000
    10 H6      -3.3559   2.8693   0.1182   H         1 1      0.0000
    11 C10      0.0052  -1.0355   1.7665   C.3       1 1      0.0000
    12 H9A     -1.8958  -0.7453   2.7302   H         1 1      0.0000
    13 C11      0.6873  -1.7270   0.5970   C.3       1 1      0.0000
    14 C12      2.0682  -1.1438   0.3184   C.3       1 1      0.0000
    15 H12A     2.5972  -1.7963  -0.3871   H         1 1      0.0000
    16 C13      2.0118   0.2428  -0.2470   C.2       1 1      0.0000
    17 C14      3.3149   0.9288  -0.5282   C.3       1 1      0.0000
    18 H14B     3.1525   1.6898  -1.3015   H         1 1      0.0000
    19 H14A     4.0288   0.1982  -0.9277   H         1 1      0.0000
    20 N        0.8550   0.8215  -0.5007   N.pl3     1 1      0.0000
    21 HN       0.0216   0.2493  -0.3658   H         1 1      0.0000
    22 C        0.6512   2.1412  -1.0801   C.3       1 1      0.0000
    23 H1A     -0.3494   2.2285  -1.4983   H         1 1      0.0000
    24 H1C      0.7718   2.9160  -0.3258   H         1 1      0.0000
    25 H1B      1.3688   2.3292  -1.8759   H         1 1      0.0000
    26 H10A     0.3133   0.0173   1.7725   H         1 1      0.0000
    27 H10B     0.3628  -1.4948   2.6963   H         1 1      0.0000
    28 H9B     -1.8409  -2.1306   1.6269   H         1 1      0.0000
    29 H5      -3.7142   1.9195  -2.1278   H         1 1      0.0000
    30 H3      -2.0619  -1.7916  -0.8115   H         1 1      0.0000
    31 H12B     2.6439  -1.1256   1.2520   H         1 1      0.0000
    32 C15      3.9220   1.5952   0.6925   C.3       1 1      0.0000
    33 H15A     4.0853   0.8397   1.4709   H         1 1      0.0000
    34 H15C     3.2149   2.3350   1.0876   H         1 1      0.0000
    35 OH       0.8180  -3.1204   0.8922   O.3       1 1      0.0000
    36 OH1     -0.0771  -3.5100   1.0505   H         1 1      0.0000
    37 H22      0.0625  -1.6081  -0.3017   H         1 1      0.0000
    38 C16      5.2336   2.2789   0.3826   C.3       1 1      0.0000
    39 H16C     5.0976   3.0501  -0.3726   H         1 1      0.0000
    40 H16A     5.6448   2.7468   1.2747   H         1 1      0.0000
    41 H16B     5.9627   1.5631   0.0086   H         1 1      0.0000
@<TRIPOS>BOND
     1     1     2   ar
     2     1     6   ar
     3     1    29    1
     4     2     3   ar
     5     2     7    1
     6     3     4   ar
     7     3    30    1
     8     4     5   ar
     9     4     8    1
    10     5     6   ar
    11     5     9    1
    12     6    10    1
    13     8    11    1
    14     8    12    1
    15     8    28    1
    16    11    13    1
    17    11    26    1
    18    11    27    1
    19    13    14    1
    20    14    15    1
    21    14    16    1
    22    14    31    1
    23    16    17    1
    24    16    20    2
    25    17    18    1
    26    17    19    1
    27    17    32    1
    28    20    21    1
    29    20    22    1
    30    22    23    1
    31    22    24    1
    32    22    25    1
    33    32    33    1
    34    32    34    1
    35    13    35    1
    36    35    36    1
    37    13    37    1
    38    32    38    1
    39    38    39    1
    40    38    40    1
    41    38    41    1
@<TRIPOS>SUBSTRUCTURE
     1 1           1 GROUP             0 ****  ****    0  
@<TRIPOS>MOLECULE
Molecule Name_00001_00309
    41    41     1     0     0
SMALL
NO_CHARGES
****
Generated from the CSD

@<TRIPOS>ATOM
     1 C5      -4.9742   0.4091   0.5251   C.ar      1 1      0.0000
     2 C4      -4.7036   0.1412  -0.7994   C.ar      1 1      0.0000
     3 C3      -3.4631  -0.3505  -1.1702   C.ar      1 1      0.0000
     4 C8      -2.4782  -0.5812  -0.2221   C.ar      1 1      0.0000
     5 C7      -2.7640  -0.3060   1.1063   C.ar      1 1      0.0000
     6 C6      -4.0041   0.1857   1.4781   C.ar      1 1      0.0000
     7 H4      -5.4640   0.3158  -1.5534   H         1 1      0.0000
     8 C9      -1.1251  -1.1140  -0.6271   C.3       1 1      0.0000
     9 H7      -2.0067  -0.4779   1.8640   H         1 1      0.0000
    10 H6      -4.2124   0.3955   2.5221   H         1 1      0.0000
    11 C10     -0.1420  -0.0150  -1.0254   C.3       1 1      0.0000
    12 H9A     -0.7026  -1.6850   0.2089   H         1 1      0.0000
    13 C11      0.3397   0.8709   0.1122   C.3       1 1      0.0000
    14 C12      1.7708   1.3494  -0.1066   C.3       1 1      0.0000
    15 H12A     2.0030   2.1321   0.6261   H         1 1      0.0000
    16 C13      2.7790   0.2480   0.0194   C.2       1 1      0.0000
    17 C14      4.2213   0.6037  -0.1836   C.3       1 1      0.0000
    18 H14B     4.2944   1.3178  -1.0131   H         1 1      0.0000
    19 H14A     4.7781  -0.2963  -0.4715   H         1 1      0.0000
    20 N        2.4032  -0.9802   0.3154   N.pl3     1 1      0.0000
    21 HN       1.4145  -1.1142   0.5269   H         1 1      0.0000
    22 C        3.2708  -2.1338   0.5039   C.3       1 1      0.0000
    23 H1A      2.8737  -2.7935   1.2725   H         1 1      0.0000
    24 H1C      3.3599  -2.7037  -0.4186   H         1 1      0.0000
    25 H1B      4.2682  -1.8221   0.8067   H         1 1      0.0000
    26 H10A     0.7328  -0.4863  -1.4902   H         1 1      0.0000
    27 H10B    -0.6209   0.6209  -1.7802   H         1 1      0.0000
    28 H9B     -1.2518  -1.8028  -1.4714   H         1 1      0.0000
    29 H5      -5.9460   0.7941   0.8160   H         1 1      0.0000
    30 H3      -3.2596  -0.5577  -2.2156   H         1 1      0.0000
    31 H12B     1.8505   1.7939  -1.1064   H         1 1      0.0000
    32 C15      4.8711   1.2140   1.0445   C.3       1 1      0.0000
    33 H15A     4.7996   0.5056   1.8789   H         1 1      0.0000
    34 H15C     4.3233   2.1211   1.3282   H         1 1      0.0000
    35 OH      -0.5235   2.0068   0.2150   O.3       1 1      0.0000
    36 OH1     -1.4651   1.7139   0.1411   H         1 1      0.0000
    37 H22      0.2948   0.3003   1.0527   H         1 1      0.0000
    38 C16      6.3232   1.5633   0.8139   C.3       1 1      0.0000
    39 H16C     6.4229   2.2829   0.0040   H         1 1      0.0000
    40 H16A     6.7622   1.9980   1.7095   H         1 1      0.0000
    41 H16B     6.8962   0.6764   0.5518   H         1 1      0.0000
@<TRIPOS>BOND
     1     1     2   ar
     2     1     6   ar
     3     1    29    1
     4     2     3   ar
     5     2     7    1
     6     3     4   ar
     7     3    30    1
     8     4     5   ar
     9     4     8    1
    10     5     6   ar
    11     5     9    1
    12     6    10    1
    13     8    11    1
    14     8    12    1
    15     8    28    1
    16    11    13    1
    17    11    26    1
    18    11    27    1
    19    13    14    1
    20    14    15    1
    21    14    16    1
    22    14    31    1
    23    16    17    1
    24    16    20    2
    25    17    18    1
    26    17    19    1
    27    17    32    1
    28    20    21    1
    29    20    22    1
    30    22    23    1
    31    22    24    1
    32    22    25    1
    33    32    33    1
    34    32    34    1
    35    13    35    1
    36    35    36    1
    37    13    37    1
    38    32    38    1
    39    38    39    1
    40    38    40    1
    41    38    41    1
@<TRIPOS>SUBSTRUCTURE
     1 1           1 GROUP             0 ****  ****    0  
@<TRIPOS>MOLECULE
Molecule Name_00001_00310
    41    41     1     0     0
SMALL
NO_CHARGES
****
Generated from the CSD

@<TRIPOS>ATOM
     1 C5      -4.9949   0.2281   0.4340   C.ar      1 1      0.0000
     2 C4      -4.5990   0.5536  -0.8454   C.ar      1 1      0.0000
     3 C3      -3.3221   0.2392  -1.2796   C.ar      1 1      0.0000
     4 C8      -2.4253  -0.4050  -0.4411   C.ar      1 1      0.0000
     5 C7      -2.8366  -0.7253   0.8435   C.ar      1 1      0.0000
     6 C6      -4.1134  -0.4113   1.2787   C.ar      1 1      0.0000
     7 H4      -5.2894   1.0573  -1.5139   H         1 1      0.0000
     8 C9      -1.0324  -0.7446  -0.9137   C.3       1 1      0.0000
     9 H7      -2.1498  -1.2282   1.5163   H         1 1      0.0000
    10 H6      -4.4203  -0.6693   2.2869   H         1 1      0.0000
    11 C10     -0.0339   0.3922  -0.7046   C.3       1 1      0.0000
    12 H9A     -0.6802  -1.6327  -0.3746   H         1 1      0.0000
    13 C11      0.3171   0.6919   0.7439   C.3       1 1      0.0000
    14 C12      1.7410   1.2180   0.8867   C.3       1 1      0.0000
    15 H12A     1.8809   1.6018   1.9048   H         1 1      0.0000
    16 C13      2.7787   0.1724   0.6122   C.2       1 1      0.0000
    17 C14      4.2174   0.5811   0.7169   C.3       1 1      0.0000
    18 H14B     4.8222  -0.3097   0.9266   H         1 1      0.0000
    19 H14A     4.3367   1.2689   1.5629   H         1 1      0.0000
    20 N        2.4292  -1.0618   0.3086   N.pl3     1 1      0.0000
    21 HN       1.4327  -1.2748   0.3495   H         1 1      0.0000
    22 C        3.3239  -2.1816   0.0545   C.3       1 1      0.0000
    23 H1A      2.8468  -2.9180  -0.5889   H         1 1      0.0000
    24 H1C      4.2348  -1.8436  -0.4350   H         1 1      0.0000
    25 H1B      3.6017  -2.6732   0.9844   H         1 1      0.0000
    26 H10A     0.8907   0.1421  -1.2393   H         1 1      0.0000
    27 H10B    -0.4465   1.3028  -1.1561   H         1 1      0.0000
    28 H9B     -1.0698  -0.9951  -1.9811   H         1 1      0.0000
    29 H5      -5.9953   0.4740   0.7744   H         1 1      0.0000
    30 H3      -3.0198   0.5002  -2.2884   H         1 1      0.0000
    31 H12B     1.8847   2.0548   0.1920   H         1 1      0.0000
    32 C15      4.7486   1.2471  -0.5390   C.3       1 1      0.0000
    33 H15A     4.1467   2.1382  -0.7557   H         1 1      0.0000
    34 H15C     4.6412   0.5572  -1.3851   H         1 1      0.0000
    35 OH      -0.5963   1.6685   1.2515   O.3       1 1      0.0000
    36 OH1     -1.3991   1.7014   0.6749   H         1 1      0.0000
    37 H22      0.2180  -0.2324   1.3338   H         1 1      0.0000
    38 C16      6.1994   1.6491  -0.4077   C.3       1 1      0.0000
    39 H16C     6.8244   0.7799  -0.2137   H         1 1      0.0000
    40 H16A     6.5524   2.1232  -1.3212   H         1 1      0.0000
    41 H16B     6.3322   2.3520   0.4121   H         1 1      0.0000
@<TRIPOS>BOND
     1     1     2   ar
     2     1     6   ar
     3     1    29    1
     4     2     3   ar
     5     2     7    1
     6     3     4   ar
     7     3    30    1
     8     4     5   ar
     9     4     8    1
    10     5     6   ar
    11     5     9    1
    12     6    10    1
    13     8    11    1
    14     8    12    1
    15     8    28    1
    16    11    13    1
    17    11    26    1
    18    11    27    1
    19    13    14    1
    20    14    15    1
    21    14    16    1
    22    14    31    1
    23    16    17    1
    24    16    20    2
    25    17    18    1
    26    17    19    1
    27    17    32    1
    28    20    21    1
    29    20    22    1
    30    22    23    1
    31    22    24    1
    32    22    25    1
    33    32    33    1
    34    32    34    1
    35    13    35    1
    36    35    36    1
    37    13    37    1
    38    32    38    1
    39    38    39    1
    40    38    40    1
    41    38    41    1
@<TRIPOS>SUBSTRUCTURE
     1 1           1 GROUP             0 ****  ****    0  
@<TRIPOS>MOLECULE
Molecule Name_00001_00311
    41    41     1     0     0
SMALL
NO_CHARGES
****
Generated from the CSD

@<TRIPOS>ATOM
     1 C5      -4.0838  -0.7808   1.4859   C.ar      1 1      0.0000
     2 C4      -3.6564   0.5227   1.6180   C.ar      1 1      0.0000
     3 C3      -2.9289   1.1224   0.6035   C.ar      1 1      0.0000
     4 C8      -2.6203   0.4272  -0.5557   C.ar      1 1      0.0000
     5 C7      -3.0556  -0.8837  -0.6744   C.ar      1 1      0.0000
     6 C6      -3.7831  -1.4842   0.3395   C.ar      1 1      0.0000
     7 H4      -3.8903   1.0804   2.5188   H         1 1      0.0000
     8 C9      -1.8245   1.0802  -1.6599   C.3       1 1      0.0000
     9 H7      -2.8235  -1.4460  -1.5728   H         1 1      0.0000
    10 H6      -4.1172  -2.5108   0.2311   H         1 1      0.0000
    11 C10     -0.4671   1.6024  -1.1932   C.3       1 1      0.0000
    12 H9A     -1.6690   0.3518  -2.4652   H         1 1      0.0000
    13 C11      0.5621   0.5341  -0.8610   C.3       1 1      0.0000
    14 C12      1.9001   1.1408  -0.4529   C.3       1 1      0.0000
    15 H12A     1.7662   1.7141   0.4727   H         1 1      0.0000
    16 C13      2.9662   0.1098  -0.2388   C.2       1 1      0.0000
    17 C14      4.3274   0.5948   0.1609   C.3       1 1      0.0000
    18 H14B     4.5412   1.5266  -0.3771   H         1 1      0.0000
    19 H14A     5.0782  -0.1439  -0.1451   H         1 1      0.0000
    20 N        2.7021  -1.1737  -0.3817   N.pl3     1 1      0.0000
    21 HN       1.7295  -1.4197  -0.5648   H         1 1      0.0000
    22 C        3.6245  -2.2801  -0.1718   C.3       1 1      0.0000
    23 H1A      3.1042  -3.1435   0.2376   H         1 1      0.0000
    24 H1C      4.0889  -2.5778  -1.1095   H         1 1      0.0000
    25 H1B      4.4136  -1.9993   0.5225   H         1 1      0.0000
    26 H10A    -0.0554   2.2455  -1.9808   H         1 1      0.0000
    27 H10B    -0.6225   2.2222  -0.3015   H         1 1      0.0000
    28 H9B     -2.4055   1.9145  -2.0720   H         1 1      0.0000
    29 H5      -4.6540  -1.2509   2.2803   H         1 1      0.0000
    30 H3      -2.5964   2.1489   0.7173   H         1 1      0.0000
    31 H12B     2.2294   1.8384  -1.2329   H         1 1      0.0000
    32 C15      4.4642   0.8491   1.6507   C.3       1 1      0.0000
    33 H15A     5.5145   1.0631   1.8841   H         1 1      0.0000
    34 H15C     4.1780  -0.0574   2.1982   H         1 1      0.0000
    35 OH       0.0666  -0.2720   0.2116   O.3       1 1      0.0000
    36 OH1     -0.4636  -1.0215  -0.1560   H         1 1      0.0000
    37 H22      0.7148  -0.1021  -1.7466   H         1 1      0.0000
    38 C16      3.6076   2.0026   2.1189   C.3       1 1      0.0000
    39 H16C     2.5885   1.6733   2.3104   H         1 1      0.0000
    40 H16A     4.0042   2.4295   3.0377   H         1 1      0.0000
    41 H16B     3.5742   2.7883   1.3669   H         1 1      0.0000
@<TRIPOS>BOND
     1     1     2   ar
     2     1     6   ar
     3     1    29    1
     4     2     3   ar
     5     2     7    1
     6     3     4   ar
     7     3    30    1
     8     4     5   ar
     9     4     8    1
    10     5     6   ar
    11     5     9    1
    12     6    10    1
    13     8    11    1
    14     8    12    1
    15     8    28    1
    16    11    13    1
    17    11    26    1
    18    11    27    1
    19    13    14    1
    20    14    15    1
    21    14    16    1
    22    14    31    1
    23    16    17    1
    24    16    20    2
    25    17    18    1
    26    17    19    1
    27    17    32    1
    28    20    21    1
    29    20    22    1
    30    22    23    1
    31    22    24    1
    32    22    25    1
    33    32    33    1
    34    32    34    1
    35    13    35    1
    36    35    36    1
    37    13    37    1
    38    32    38    1
    39    38    39    1
    40    38    40    1
    41    38    41    1
@<TRIPOS>SUBSTRUCTURE
     1 1           1 GROUP             0 ****  ****    0  
@<TRIPOS>MOLECULE
Molecule Name_00001_00312
    41    41     1     0     0
SMALL
NO_CHARGES
****
Generated from the CSD

@<TRIPOS>ATOM
     1 C5      -4.0719  -0.4430   1.6985   C.ar      1 1      0.0000
     2 C4      -3.7160   0.8641   1.4453   C.ar      1 1      0.0000
     3 C3      -3.0198   1.1845   0.2918   C.ar      1 1      0.0000
     4 C8      -2.6714   0.2030  -0.6232   C.ar      1 1      0.0000
     5 C7      -3.0348  -1.1078  -0.3550   C.ar      1 1      0.0000
     6 C6      -3.7310  -1.4292   0.7982   C.ar      1 1      0.0000
     7 H4      -3.9819   1.6439   2.1513   H         1 1      0.0000
     8 C9      -1.9096   0.5522  -1.8788   C.3       1 1      0.0000
     9 H7      -2.7705  -1.8915  -1.0573   H         1 1      0.0000
    10 H6      -4.0087  -2.4598   0.9933   H         1 1      0.0000
    11 C10     -0.5836   1.2569  -1.5998   C.3       1 1      0.0000
    12 H9A     -1.7131  -0.3676  -2.4434   H         1 1      0.0000
    13 C11      0.5012   0.3846  -0.9889   C.3       1 1      0.0000
    14 C12      1.8035   1.1523  -0.7900   C.3       1 1      0.0000
    15 H12A     1.6362   1.9608  -0.0676   H         1 1      0.0000
    16 C13      2.9227   0.2842  -0.3008   C.2       1 1      0.0000
    17 C14      4.2487   0.9387  -0.0537   C.3       1 1      0.0000
    18 H14B     4.4340   1.6704  -0.8498   H         1 1      0.0000
    19 H14A     5.0407   0.1820  -0.1088   H         1 1      0.0000
    20 N        2.7331  -1.0017  -0.0820   N.pl3     1 1      0.0000
    21 HN       1.7784  -1.3446  -0.1879   H         1 1      0.0000
    22 C        3.7130  -1.9516   0.4243   C.3       1 1      0.0000
    23 H1A      3.2400  -2.6828   1.0766   H         1 1      0.0000
    24 H1C      4.1899  -2.4865  -0.3943   H         1 1      0.0000
    25 H1B      4.4881  -1.4418   0.9924   H         1 1      0.0000
    26 H10A    -0.2055   1.6674  -2.5443   H         1 1      0.0000
    27 H10B    -0.7743   2.0976  -0.9214   H         1 1      0.0000
    28 H9B     -2.5340   1.2013  -2.5051   H         1 1      0.0000
    29 H5      -4.6176  -0.6944   2.6020   H         1 1      0.0000
    30 H3      -2.7437   2.2165   0.1019   H         1 1      0.0000
    31 H12B     2.0974   1.6111  -1.7422   H         1 1      0.0000
    32 C15      4.3330   1.6445   1.2870   C.3       1 1      0.0000
    33 H15A     3.5213   2.3789   1.3587   H         1 1      0.0000
    34 H15C     5.2832   2.1893   1.3478   H         1 1      0.0000
    35 OH       0.0477  -0.1043   0.2764   O.3       1 1      0.0000
    36 OH1     -0.4085  -0.9728   0.1509   H         1 1      0.0000
    37 H22      0.6901  -0.4702  -1.6566   H         1 1      0.0000
    38 C16      4.2366   0.6843   2.4501   C.3       1 1      0.0000
    39 H16C     5.0441  -0.0441   2.4168   H         1 1      0.0000
    40 H16A     4.2998   1.2173   3.3964   H         1 1      0.0000
    41 H16B     3.2922   0.1447   2.4274   H         1 1      0.0000
@<TRIPOS>BOND
     1     1     2   ar
     2     1     6   ar
     3     1    29    1
     4     2     3   ar
     5     2     7    1
     6     3     4   ar
     7     3    30    1
     8     4     5   ar
     9     4     8    1
    10     5     6   ar
    11     5     9    1
    12     6    10    1
    13     8    11    1
    14     8    12    1
    15     8    28    1
    16    11    13    1
    17    11    26    1
    18    11    27    1
    19    13    14    1
    20    14    15    1
    21    14    16    1
    22    14    31    1
    23    16    17    1
    24    16    20    2
    25    17    18    1
    26    17    19    1
    27    17    32    1
    28    20    21    1
    29    20    22    1
    30    22    23    1
    31    22    24    1
    32    22    25    1
    33    32    33    1
    34    32    34    1
    35    13    35    1
    36    35    36    1
    37    13    37    1
    38    32    38    1
    39    38    39    1
    40    38    40    1
    41    38    41    1
@<TRIPOS>SUBSTRUCTURE
     1 1           1 GROUP             0 ****  ****    0  
@<TRIPOS>MOLECULE
Molecule Name_00001_00313
    41    41     1     0     0
SMALL
NO_CHARGES
****
Generated from the CSD

@<TRIPOS>ATOM
     1 C5      -4.3941  -1.2933   0.6455   C.ar      1 1      0.0000
     2 C4      -4.0620  -0.1843   1.3933   C.ar      1 1      0.0000
     3 C3      -3.2303   0.7882   0.8638   C.ar      1 1      0.0000
     4 C8      -2.7209   0.6649  -0.4198   C.ar      1 1      0.0000
     5 C7      -3.0623  -0.4563  -1.1602   C.ar      1 1      0.0000
     6 C6      -3.8940  -1.4294  -0.6315   C.ar      1 1      0.0000
     7 H4      -4.4530  -0.0730   2.3993   H         1 1      0.0000
     8 C9      -1.8117   1.7236  -0.9954   C.3       1 1      0.0000
     9 H7      -2.6732  -0.5730  -2.1663   H         1 1      0.0000
    10 H6      -4.1524  -2.3008  -1.2240   H         1 1      0.0000
    11 C10     -0.5659   1.9709  -0.1469   C.3       1 1      0.0000
    12 H9A     -1.5025   1.4181  -2.0026   H         1 1      0.0000
    13 C11      0.4618   0.8508  -0.1575   C.3       1 1      0.0000
    14 C12      1.6921   1.1999   0.6727   C.3       1 1      0.0000
    15 H12A     1.3952   1.3152   1.7224   H         1 1      0.0000
    16 C13      2.7701   0.1631   0.5812   C.2       1 1      0.0000
    17 C14      4.0221   0.3951   1.3726   C.3       1 1      0.0000
    18 H14B     4.5005  -0.5729   1.5665   H         1 1      0.0000
    19 H14A     3.7599   0.8349   2.3425   H         1 1      0.0000
    20 N        2.6064  -0.9173  -0.1561   N.pl3     1 1      0.0000
    21 HN       1.6899  -1.0387  -0.5867   H         1 1      0.0000
    22 C        3.5476  -2.0172  -0.3084   C.3       1 1      0.0000
    23 H1A      3.0420  -2.9101  -0.6703   H         1 1      0.0000
    24 H1C      4.3299  -1.7593  -1.0192   H         1 1      0.0000
    25 H1B      4.0196  -2.2567   0.6421   H         1 1      0.0000
    26 H10A    -0.0811   2.8877  -0.5045   H         1 1      0.0000
    27 H10B    -0.8815   2.1410   0.8899   H         1 1      0.0000
    28 H9B     -2.3721   2.6620  -1.0886   H         1 1      0.0000
    29 H5      -5.0459  -2.0553   1.0599   H         1 1      0.0000
    30 H3      -2.9742   1.6572   1.4608   H         1 1      0.0000
    31 H12B     2.0925   2.1625   0.3315   H         1 1      0.0000
    32 C15      5.0190   1.3008   0.6735   C.3       1 1      0.0000
    33 H15A     5.8523   1.5123   1.3548   H         1 1      0.0000
    34 H15C     4.5325   2.2545   0.4342   H         1 1      0.0000
    35 OH      -0.1378  -0.3360   0.3697   O.3       1 1      0.0000
    36 OH1     -0.5315  -0.8632  -0.3685   H         1 1      0.0000
    37 H22      0.7746   0.6632  -1.1964   H         1 1      0.0000
    38 C16      5.5611   0.6881  -0.5971   C.3       1 1      0.0000
    39 H16C     4.7571   0.4872  -1.3020   H         1 1      0.0000
    40 H16A     6.2720   1.3583  -1.0757   H         1 1      0.0000
    41 H16B     6.0693  -0.2506  -0.3863   H         1 1      0.0000
@<TRIPOS>BOND
     1     1     2   ar
     2     1     6   ar
     3     1    29    1
     4     2     3   ar
     5     2     7    1
     6     3     4   ar
     7     3    30    1
     8     4     5   ar
     9     4     8    1
    10     5     6   ar
    11     5     9    1
    12     6    10    1
    13     8    11    1
    14     8    12    1
    15     8    28    1
    16    11    13    1
    17    11    26    1
    18    11    27    1
    19    13    14    1
    20    14    15    1
    21    14    16    1
    22    14    31    1
    23    16    17    1
    24    16    20    2
    25    17    18    1
    26    17    19    1
    27    17    32    1
    28    20    21    1
    29    20    22    1
    30    22    23    1
    31    22    24    1
    32    22    25    1
    33    32    33    1
    34    32    34    1
    35    13    35    1
    36    35    36    1
    37    13    37    1
    38    32    38    1
    39    38    39    1
    40    38    40    1
    41    38    41    1
@<TRIPOS>SUBSTRUCTURE
     1 1           1 GROUP             0 ****  ****    0  
@<TRIPOS>MOLECULE
Molecule Name_00001_00314
    41    41     1     0     0
SMALL
NO_CHARGES
****
Generated from the CSD

@<TRIPOS>ATOM
     1 C5      -4.3800  -1.3218   0.4055   C.ar      1 1      0.0000
     2 C4      -3.9693  -0.4366   1.3787   C.ar      1 1      0.0000
     3 C3      -3.1167   0.6059   1.0557   C.ar      1 1      0.0000
     4 C8      -2.6648   0.7771  -0.2438   C.ar      1 1      0.0000
     5 C7      -3.0851  -0.1215  -1.2122   C.ar      1 1      0.0000
     6 C6      -3.9377  -1.1643  -0.8902   C.ar      1 1      0.0000
     7 H4      -4.3146  -0.5567   2.4003   H         1 1      0.0000
     8 C9      -1.7329   1.9116  -0.5948   C.3       1 1      0.0000
     9 H7      -2.7419  -0.0064  -2.2350   H         1 1      0.0000
    10 H6      -4.2580  -1.8589  -1.6597   H         1 1      0.0000
    11 C10     -0.4446   1.9058   0.2258   C.3       1 1      0.0000
    12 H9A     -1.4780   1.8465  -1.6598   H         1 1      0.0000
    13 C11      0.5309   0.7869  -0.1021   C.3       1 1      0.0000
    14 C12      1.8076   0.8848   0.7256   C.3       1 1      0.0000
    15 H12A     1.5580   0.7564   1.7861   H         1 1      0.0000
    16 C13      2.8329  -0.1370   0.3381   C.2       1 1      0.0000
    17 C14      4.1179  -0.1550   1.1103   C.3       1 1      0.0000
    18 H14B     4.5423  -1.1655   1.0642   H         1 1      0.0000
    19 H14A     3.9094   0.0687   2.1637   H         1 1      0.0000
    20 N        2.5968  -0.9946  -0.6346   N.pl3     1 1      0.0000
    21 HN       1.6630  -0.9714  -1.0439   H         1 1      0.0000
    22 C        3.4808  -2.0573  -1.0908   C.3       1 1      0.0000
    23 H1A      2.9220  -2.8181  -1.6318   H         1 1      0.0000
    24 H1C      4.2466  -1.6628  -1.7554   H         1 1      0.0000
    25 H1B      3.9771  -2.5356  -0.2491   H         1 1      0.0000
    26 H10A     0.0660   2.8647   0.0734   H         1 1      0.0000
    27 H10B    -0.7107   1.8327   1.2875   H         1 1      0.0000
    28 H9B     -2.2542   2.8634  -0.4340   H         1 1      0.0000
    29 H5      -5.0482  -2.1385   0.6582   H         1 1      0.0000
    30 H3      -2.7986   1.2971   1.8291   H         1 1      0.0000
    31 H12B     2.2376   1.8866   0.6030   H         1 1      0.0000
    32 C15      5.1480   0.8311   0.5912   C.3       1 1      0.0000
    33 H15A     5.3185   0.6446  -0.4763   H         1 1      0.0000
    34 H15C     6.0980   0.6682   1.1150   H         1 1      0.0000
    35 OH      -0.0996  -0.4707   0.1562   O.3       1 1      0.0000
    36 OH1     -0.5484  -0.7902  -0.6651   H         1 1      0.0000
    37 H22      0.7934   0.8436  -1.1699   H         1 1      0.0000
    38 C16      4.7170   2.2671   0.7806   C.3       1 1      0.0000
    39 H16C     4.2190   2.3970   1.7391   H         1 1      0.0000
    40 H16A     5.5757   2.9345   0.7516   H         1 1      0.0000
    41 H16B     4.0263   2.5691  -0.0039   H         1 1      0.0000
@<TRIPOS>BOND
     1     1     2   ar
     2     1     6   ar
     3     1    29    1
     4     2     3   ar
     5     2     7    1
     6     3     4   ar
     7     3    30    1
     8     4     5   ar
     9     4     8    1
    10     5     6   ar
    11     5     9    1
    12     6    10    1
    13     8    11    1
    14     8    12    1
    15     8    28    1
    16    11    13    1
    17    11    26    1
    18    11    27    1
    19    13    14    1
    20    14    15    1
    21    14    16    1
    22    14    31    1
    23    16    17    1
    24    16    20    2
    25    17    18    1
    26    17    19    1
    27    17    32    1
    28    20    21    1
    29    20    22    1
    30    22    23    1
    31    22    24    1
    32    22    25    1
    33    32    33    1
    34    32    34    1
    35    13    35    1
    36    35    36    1
    37    13    37    1
    38    32    38    1
    39    38    39    1
    40    38    40    1
    41    38    41    1
@<TRIPOS>SUBSTRUCTURE
     1 1           1 GROUP             0 ****  ****    0  
@<TRIPOS>MOLECULE
Molecule Name_00001_00315
    41    41     1     0     0
SMALL
NO_CHARGES
****
Generated from the CSD

@<TRIPOS>ATOM
     1 C5      -5.3624   0.0606   0.5763   C.ar      1 1      0.0000
     2 C4      -4.7196   0.9245   1.4364   C.ar      1 1      0.0000
     3 C3      -3.3576   1.1432   1.3133   C.ar      1 1      0.0000
     4 C8      -2.6214   0.5021   0.3289   C.ar      1 1      0.0000
     5 C7      -3.2809  -0.3651  -0.5285   C.ar      1 1      0.0000
     6 C6      -4.6429  -0.5845  -0.4062   C.ar      1 1      0.0000
     7 H4      -5.2817   1.4344   2.2118   H         1 1      0.0000
     8 C9      -1.1363   0.7382   0.1971   C.3       1 1      0.0000
     9 H7      -2.7232  -0.8783  -1.3049   H         1 1      0.0000
    10 H6      -5.1445  -1.2658  -1.0855   H         1 1      0.0000
    11 C10     -0.5014  -0.0547  -0.9436   C.3       1 1      0.0000
    12 H9A     -0.9593   1.8079   0.0299   H         1 1      0.0000
    13 C11      0.9950   0.1458  -1.1217   C.3       1 1      0.0000
    14 C12      1.7925  -0.4855   0.0142   C.3       1 1      0.0000
    15 H12A     1.6342  -1.5710   0.0032   H         1 1      0.0000
    16 C13      3.2616  -0.2053  -0.0795   C.2       1 1      0.0000
    17 C14      3.7245   1.1802   0.2577   C.3       1 1      0.0000
    18 H14B     2.9768   1.8983  -0.1009   H         1 1      0.0000
    19 H14A     4.6624   1.3865  -0.2723   H         1 1      0.0000
    20 N        4.1083  -1.1532  -0.4288   N.pl3     1 1      0.0000
    21 HN       3.7188  -2.0878  -0.5509   H         1 1      0.0000
    22 C        5.5559  -1.0340  -0.5254   C.3       1 1      0.0000
    23 H1A      6.0398  -1.9627  -0.2305   H         1 1      0.0000
    24 H1C      5.8564  -0.8046  -1.5457   H         1 1      0.0000
    25 H1B      5.9226  -0.2402   0.1219   H         1 1      0.0000
    26 H10A    -0.6884  -1.1214  -0.7683   H         1 1      0.0000
    27 H10B    -1.0016   0.2240  -1.8793   H         1 1      0.0000
    28 H9B     -0.6469   0.4623   1.1393   H         1 1      0.0000
    29 H5      -6.4295  -0.1107   0.6723   H         1 1      0.0000
    30 H3      -2.8605   1.8248   1.9957   H         1 1      0.0000
    31 H12B     1.4163  -0.1032   0.9711   H         1 1      0.0000
    32 C15      3.9391   1.4001   1.7437   C.3       1 1      0.0000
    33 H15A     4.4095   2.3789   1.8984   H         1 1      0.0000
    34 H15C     4.6264   0.6349   2.1252   H         1 1      0.0000
    35 OH       1.3991  -0.4425  -2.3612   O.3       1 1      0.0000
    36 OH1      0.9023  -0.0202  -3.1048   H         1 1      0.0000
    37 H22      1.2095   1.2253  -1.1505   H         1 1      0.0000
    38 C16      2.6478   1.3416   2.5267   C.3       1 1      0.0000
    39 H16C     2.3394   0.3104   2.6855   H         1 1      0.0000
    40 H16A     2.7651   1.8141   3.4997   H         1 1      0.0000
    41 H16B     1.8504   1.8557   1.9942   H         1 1      0.0000
@<TRIPOS>BOND
     1     1     2   ar
     2     1     6   ar
     3     1    29    1
     4     2     3   ar
     5     2     7    1
     6     3     4   ar
     7     3    30    1
     8     4     5   ar
     9     4     8    1
    10     5     6   ar
    11     5     9    1
    12     6    10    1
    13     8    11    1
    14     8    12    1
    15     8    28    1
    16    11    13    1
    17    11    26    1
    18    11    27    1
    19    13    14    1
    20    14    15    1
    21    14    16    1
    22    14    31    1
    23    16    17    1
    24    16    20    2
    25    17    18    1
    26    17    19    1
    27    17    32    1
    28    20    21    1
    29    20    22    1
    30    22    23    1
    31    22    24    1
    32    22    25    1
    33    32    33    1
    34    32    34    1
    35    13    35    1
    36    35    36    1
    37    13    37    1
    38    32    38    1
    39    38    39    1
    40    38    40    1
    41    38    41    1
@<TRIPOS>SUBSTRUCTURE
     1 1           1 GROUP             0 ****  ****    0  
@<TRIPOS>MOLECULE
Molecule Name_00001_00316
    41    41     1     0     0
SMALL
NO_CHARGES
****
Generated from the CSD

@<TRIPOS>ATOM
     1 C5      -5.4988   0.0169   0.4949   C.ar      1 1      0.0000
     2 C4      -4.8908   0.9623   1.2923   C.ar      1 1      0.0000
     3 C3      -3.5317   1.2013   1.1748   C.ar      1 1      0.0000
     4 C8      -2.7638   0.4992   0.2585   C.ar      1 1      0.0000
     5 C7      -3.3884  -0.4496  -0.5362   C.ar      1 1      0.0000
     6 C6      -4.7474  -0.6893  -0.4194   C.ar      1 1      0.0000
     7 H4      -5.4781   1.5206   2.0138   H         1 1      0.0000
     8 C9      -1.2818   0.7577   0.1330   C.3       1 1      0.0000
     9 H7      -2.8054  -1.0113  -1.2585   H         1 1      0.0000
    10 H6      -5.2216  -1.4349  -1.0491   H         1 1      0.0000
    11 C10     -0.6089  -0.1107  -0.9282   C.3       1 1      0.0000
    12 H9A     -1.1247   1.8140  -0.1181   H         1 1      0.0000
    13 C11      0.8859   0.1088  -1.0968   C.3       1 1      0.0000
    14 C12      1.6753  -0.4097   0.1002   C.3       1 1      0.0000
    15 H12A     1.5406  -1.4958   0.1753   H         1 1      0.0000
    16 C13      3.1396  -0.1046   0.0088   C.2       1 1      0.0000
    17 C14      3.5675   1.3120   0.2495   C.3       1 1      0.0000
    18 H14B     2.8399   1.9845  -0.2214   H         1 1      0.0000
    19 H14A     4.5374   1.4833  -0.2334   H         1 1      0.0000
    20 N        4.0119  -1.0565  -0.2562   N.pl3     1 1      0.0000
    21 HN       3.6443  -2.0060  -0.3148   H         1 1      0.0000
    22 C        5.4581  -0.9126  -0.3390   C.3       1 1      0.0000
    23 H1A      5.9567  -1.7966   0.0531   H         1 1      0.0000
    24 H1C      5.7733  -0.7760  -1.3714   H         1 1      0.0000
    25 H1B      5.7945  -0.0514   0.2343   H         1 1      0.0000
    26 H10A    -0.7763  -1.1635  -0.6695   H         1 1      0.0000
    27 H10B    -1.0973   0.0795  -1.8918   H         1 1      0.0000
    28 H9B     -0.8043   0.5706   1.1028   H         1 1      0.0000
    29 H5      -6.5636  -0.1704   0.5865   H         1 1      0.0000
    30 H3      -3.0622   1.9473   1.8075   H         1 1      0.0000
    31 H12B     1.2733   0.0406   1.0162   H         1 1      0.0000
    32 C15      3.6794   1.6671   1.7206   C.3       1 1      0.0000
    33 H15A     2.7204   1.4653   2.2134   H         1 1      0.0000
    34 H15C     3.8856   2.7403   1.8170   H         1 1      0.0000
    35 OH       1.3256  -0.5689  -2.2771   O.3       1 1      0.0000
    36 OH1      0.8340  -0.2200  -3.0610   H         1 1      0.0000
    37 H22      1.0779   1.1870  -1.2101   H         1 1      0.0000
    38 C16      4.7693   0.8879   2.4196   C.3       1 1      0.0000
    39 H16C     5.7376   1.0861   1.9647   H         1 1      0.0000
    40 H16A     4.8262   1.1626   3.4708   H         1 1      0.0000
    41 H16B     4.5786  -0.1815   2.3586   H         1 1      0.0000
@<TRIPOS>BOND
     1     1     2   ar
     2     1     6   ar
     3     1    29    1
     4     2     3   ar
     5     2     7    1
     6     3     4   ar
     7     3    30    1
     8     4     5   ar
     9     4     8    1
    10     5     6   ar
    11     5     9    1
    12     6    10    1
    13     8    11    1
    14     8    12    1
    15     8    28    1
    16    11    13    1
    17    11    26    1
    18    11    27    1
    19    13    14    1
    20    14    15    1
    21    14    16    1
    22    14    31    1
    23    16    17    1
    24    16    20    2
    25    17    18    1
    26    17    19    1
    27    17    32    1
    28    20    21    1
    29    20    22    1
    30    22    23    1
    31    22    24    1
    32    22    25    1
    33    32    33    1
    34    32    34    1
    35    13    35    1
    36    35    36    1
    37    13    37    1
    38    32    38    1
    39    38    39    1
    40    38    40    1
    41    38    41    1
@<TRIPOS>SUBSTRUCTURE
     1 1           1 GROUP             0 ****  ****    0  
@<TRIPOS>MOLECULE
Molecule Name_00001_00317
    41    41     1     0     0
SMALL
NO_CHARGES
****
Generated from the CSD

@<TRIPOS>ATOM
     1 C5      -5.5519   0.0643  -0.0394   C.ar      1 1      0.0000
     2 C4      -5.0646  -0.0723   1.2424   C.ar      1 1      0.0000
     3 C3      -3.7026   0.0057   1.4808   C.ar      1 1      0.0000
     4 C8      -2.8109   0.2219   0.4414   C.ar      1 1      0.0000
     5 C7      -3.3151   0.3562  -0.8431   C.ar      1 1      0.0000
     6 C6      -4.6769   0.2784  -1.0825   C.ar      1 1      0.0000
     7 H4      -5.7495  -0.2414   2.0668   H         1 1      0.0000
     8 C9      -1.3261   0.3036   0.7011   C.3       1 1      0.0000
     9 H7      -2.6343   0.5244  -1.6710   H         1 1      0.0000
    10 H6      -5.0558   0.3862  -2.0934   H         1 1      0.0000
    11 C10     -0.5077   0.5462  -0.5655   C.3       1 1      0.0000
    12 H9A     -1.1333   1.1167   1.4118   H         1 1      0.0000
    13 C11      0.9960   0.6372  -0.3614   C.3       1 1      0.0000
    14 C12      1.6035  -0.7137   0.0004   C.3       1 1      0.0000
    15 H12A     1.4089  -1.4236  -0.8130   H         1 1      0.0000
    16 C13      3.0805  -0.6420   0.2430   C.2       1 1      0.0000
    17 C14      3.5406  -0.0427   1.5380   C.3       1 1      0.0000
    18 H14B     4.4848  -0.5184   1.8303   H         1 1      0.0000
    19 H14A     2.8033  -0.2626   2.3197   H         1 1      0.0000
    20 N        3.9339  -1.1075  -0.6471   N.pl3     1 1      0.0000
    21 HN       3.5329  -1.5807  -1.4567   H         1 1      0.0000
    22 C        5.3845  -1.1365  -0.5292   C.3       1 1      0.0000
    23 H1A      5.8091  -1.8981  -1.1799   H         1 1      0.0000
    24 H1C      5.8130  -0.1759  -0.8076   H         1 1      0.0000
    25 H1B      5.6851  -1.3576   0.4927   H         1 1      0.0000
    26 H10A    -0.7118  -0.2697  -1.2698   H         1 1      0.0000
    27 H10B    -0.8515   1.4806  -1.0261   H         1 1      0.0000
    28 H9B     -0.9941  -0.6325   1.1668   H         1 1      0.0000
    29 H5      -6.6189   0.0035  -0.2265   H         1 1      0.0000
    30 H3      -3.3287  -0.1037   2.4934   H         1 1      0.0000
    31 H12B     1.1115  -1.0971   0.9027   H         1 1      0.0000
    32 C15      3.7517   1.4583   1.4672   C.3       1 1      0.0000
    33 H15A     3.9878   1.8361   2.4697   H         1 1      0.0000
    34 H15C     2.8209   1.9377   1.1399   H         1 1      0.0000
    35 OH       1.6010   1.1155  -1.5659   O.3       1 1      0.0000
    36 OH1      1.2283   2.0029  -1.7932   H         1 1      0.0000
    37 H22      1.2034   1.3502   0.4515   H         1 1      0.0000
    38 C16      4.8655   1.8389   0.5193   C.3       1 1      0.0000
    39 H16C     4.6475   1.4952  -0.4897   H         1 1      0.0000
    40 H16A     4.9940   2.9189   0.4891   H         1 1      0.0000
    41 H16B     5.8076   1.3942   0.8328   H         1 1      0.0000
@<TRIPOS>BOND
     1     1     2   ar
     2     1     6   ar
     3     1    29    1
     4     2     3   ar
     5     2     7    1
     6     3     4   ar
     7     3    30    1
     8     4     5   ar
     9     4     8    1
    10     5     6   ar
    11     5     9    1
    12     6    10    1
    13     8    11    1
    14     8    12    1
    15     8    28    1
    16    11    13    1
    17    11    26    1
    18    11    27    1
    19    13    14    1
    20    14    15    1
    21    14    16    1
    22    14    31    1
    23    16    17    1
    24    16    20    2
    25    17    18    1
    26    17    19    1
    27    17    32    1
    28    20    21    1
    29    20    22    1
    30    22    23    1
    31    22    24    1
    32    22    25    1
    33    32    33    1
    34    32    34    1
    35    13    35    1
    36    35    36    1
    37    13    37    1
    38    32    38    1
    39    38    39    1
    40    38    40    1
    41    38    41    1
@<TRIPOS>SUBSTRUCTURE
     1 1           1 GROUP             0 ****  ****    0  
@<TRIPOS>MOLECULE
Molecule Name_00001_00318
    41    41     1     0     0
SMALL
NO_CHARGES
****
Generated from the CSD

@<TRIPOS>ATOM
     1 C5      -5.5565   0.5047  -0.2978   C.ar      1 1      0.0000
     2 C4      -5.0159  -0.3370  -1.2458   C.ar      1 1      0.0000
     3 C3      -3.6726  -0.6702  -1.1951   C.ar      1 1      0.0000
     4 C8      -2.8533  -0.1672  -0.1962   C.ar      1 1      0.0000
     5 C7      -3.4102   0.6793   0.7500   C.ar      1 1      0.0000
     6 C6      -4.7534   1.0132   0.7002   C.ar      1 1      0.0000
     7 H4      -5.6441  -0.7395  -2.0335   H         1 1      0.0000
     8 C9      -1.3884  -0.5281  -0.1432   C.3       1 1      0.0000
     9 H7      -2.7861   1.0853   1.5392   H         1 1      0.0000
    10 H6      -5.1744   1.6765   1.4485   H         1 1      0.0000
    11 C10     -0.6522   0.1216   1.0268   C.3       1 1      0.0000
    12 H9A     -1.2930  -1.6181  -0.0640   H         1 1      0.0000
    13 C11      0.8283  -0.2084   1.1282   C.3       1 1      0.0000
    14 C12      1.6343   0.4453   0.0112   C.3       1 1      0.0000
    15 H12A     1.6072   1.5344   0.1397   H         1 1      0.0000
    16 C13      3.0625  -0.0073  -0.0184   C.2       1 1      0.0000
    17 C14      3.9929   0.5707   1.0054   C.3       1 1      0.0000
    18 H14B     4.8292  -0.1237   1.1531   H         1 1      0.0000
    19 H14A     3.4650   0.6614   1.9626   H         1 1      0.0000
    20 N        3.4711  -0.8941  -0.9039   N.pl3     1 1      0.0000
    21 HN       2.7532  -1.3027  -1.5020   H         1 1      0.0000
    22 C        4.8117  -1.4484  -1.0250   C.3       1 1      0.0000
    23 H1A      4.7944  -2.3801  -1.5866   H         1 1      0.0000
    24 H1C      5.4706  -0.7537  -1.5416   H         1 1      0.0000
    25 H1B      5.2362  -1.6516  -0.0442   H         1 1      0.0000
    26 H10A    -0.7582   1.2100   0.9397   H         1 1      0.0000
    27 H10B    -1.1405  -0.1894   1.9586   H         1 1      0.0000
    28 H9B     -0.9113  -0.2186  -1.0813   H         1 1      0.0000
    29 H5      -6.6088   0.7658  -0.3370   H         1 1      0.0000
    30 H3      -3.2564  -1.3332  -1.9464   H         1 1      0.0000
    31 H12B     1.1655   0.2113  -0.9526   H         1 1      0.0000
    32 C15      4.5485   1.9286   0.6179   C.3       1 1      0.0000
    33 H15A     5.1266   2.3337   1.4575   H         1 1      0.0000
    34 H15C     3.7159   2.6157   0.4227   H         1 1      0.0000
    35 OH       1.3215   0.2481   2.3908   O.3       1 1      0.0000
    36 OH1      0.8183  -0.1908   3.1203   H         1 1      0.0000
    37 H22      0.9556  -1.3003   1.0672   H         1 1      0.0000
    38 C16      5.4329   1.8609  -0.6056   C.3       1 1      0.0000
    39 H16C     4.8786   1.4820  -1.4617   H         1 1      0.0000
    40 H16A     5.8163   2.8469  -0.8594   H         1 1      0.0000
    41 H16B     6.2811   1.2017  -0.4324   H         1 1      0.0000
@<TRIPOS>BOND
     1     1     2   ar
     2     1     6   ar
     3     1    29    1
     4     2     3   ar
     5     2     7    1
     6     3     4   ar
     7     3    30    1
     8     4     5   ar
     9     4     8    1
    10     5     6   ar
    11     5     9    1
    12     6    10    1
    13     8    11    1
    14     8    12    1
    15     8    28    1
    16    11    13    1
    17    11    26    1
    18    11    27    1
    19    13    14    1
    20    14    15    1
    21    14    16    1
    22    14    31    1
    23    16    17    1
    24    16    20    2
    25    17    18    1
    26    17    19    1
    27    17    32    1
    28    20    21    1
    29    20    22    1
    30    22    23    1
    31    22    24    1
    32    22    25    1
    33    32    33    1
    34    32    34    1
    35    13    35    1
    36    35    36    1
    37    13    37    1
    38    32    38    1
    39    38    39    1
    40    38    40    1
    41    38    41    1
@<TRIPOS>SUBSTRUCTURE
     1 1           1 GROUP             0 ****  ****    0  
@<TRIPOS>MOLECULE
Molecule Name_00001_00319
    41    41     1     0     0
SMALL
NO_CHARGES
****
Generated from the CSD

@<TRIPOS>ATOM
     1 C5      -5.4553   0.6001  -0.1466   C.ar      1 1      0.0000
     2 C4      -4.9694  -0.1956  -1.1615   C.ar      1 1      0.0000
     3 C3      -3.6343  -0.5635  -1.1783   C.ar      1 1      0.0000
     4 C8      -2.7687  -0.1415  -0.1810   C.ar      1 1      0.0000
     5 C7      -3.2710   0.6596   0.8330   C.ar      1 1      0.0000
     6 C6      -4.6058   1.0280   0.8507   C.ar      1 1      0.0000
     7 H4      -5.6342  -0.5347  -1.9490   H         1 1      0.0000
     8 C9      -1.3128  -0.5400  -0.2015   C.3       1 1      0.0000
     9 H7      -2.6101   1.0021   1.6224   H         1 1      0.0000
    10 H6      -4.9837   1.6549   1.6516   H         1 1      0.0000
    11 C10     -0.5206   0.0201   0.9783   C.3       1 1      0.0000
    12 H9A     -1.2432  -1.6347  -0.1906   H         1 1      0.0000
    13 C11      0.9533  -0.3509   1.0074   C.3       1 1      0.0000
    14 C12      1.7378   0.3495  -0.0966   C.3       1 1      0.0000
    15 H12A     1.7411   1.4295   0.0958   H         1 1      0.0000
    16 C13      3.1530  -0.1321  -0.2012   C.2       1 1      0.0000
    17 C14      4.1307   0.3663   0.8203   C.3       1 1      0.0000
    18 H14B     4.9254  -0.3803   0.9407   H         1 1      0.0000
    19 H14A     3.6226   0.4676   1.7871   H         1 1      0.0000
    20 N        3.5103  -0.9760  -1.1486   N.pl3     1 1      0.0000
    21 HN       2.7632  -1.3341  -1.7434   H         1 1      0.0000
    22 C        4.8324  -1.5519  -1.3472   C.3       1 1      0.0000
    23 H1A      4.7711  -2.4636  -1.9378   H         1 1      0.0000
    24 H1C      5.4826  -0.8531  -1.8693   H         1 1      0.0000
    25 H1B      5.2949  -1.7963  -0.3933   H         1 1      0.0000
    26 H10A    -0.6011   1.1140   0.9599   H         1 1      0.0000
    27 H10B    -0.9850  -0.3347   1.9067   H         1 1      0.0000
    28 H9B     -0.8599  -0.1860  -1.1358   H         1 1      0.0000
    29 H5      -6.5012   0.8883  -0.1329   H         1 1      0.0000
    30 H3      -3.2612  -1.1898  -1.9819   H         1 1      0.0000
    31 H12B     1.2321   0.1830  -1.0558   H         1 1      0.0000
    32 C15      4.7620   1.6964   0.4531   C.3       1 1      0.0000
    33 H15A     5.2221   1.6144  -0.5394   H         1 1      0.0000
    34 H15C     5.5574   1.9280   1.1723   H         1 1      0.0000
    35 OH       1.5008   0.0166   2.2766   O.3       1 1      0.0000
    36 OH1      1.0114  -0.4533   2.9961   H         1 1      0.0000
    37 H22      1.0500  -1.4399   0.8771   H         1 1      0.0000
    38 C16      3.7588   2.8264   0.4423   C.3       1 1      0.0000
    39 H16C     3.1209   2.7843   1.3226   H         1 1      0.0000
    40 H16A     4.2635   3.7903   0.4353   H         1 1      0.0000
    41 H16B     3.1238   2.7700  -0.4394   H         1 1      0.0000
@<TRIPOS>BOND
     1     1     2   ar
     2     1     6   ar
     3     1    29    1
     4     2     3   ar
     5     2     7    1
     6     3     4   ar
     7     3    30    1
     8     4     5   ar
     9     4     8    1
    10     5     6   ar
    11     5     9    1
    12     6    10    1
    13     8    11    1
    14     8    12    1
    15     8    28    1
    16    11    13    1
    17    11    26    1
    18    11    27    1
    19    13    14    1
    20    14    15    1
    21    14    16    1
    22    14    31    1
    23    16    17    1
    24    16    20    2
    25    17    18    1
    26    17    19    1
    27    17    32    1
    28    20    21    1
    29    20    22    1
    30    22    23    1
    31    22    24    1
    32    22    25    1
    33    32    33    1
    34    32    34    1
    35    13    35    1
    36    35    36    1
    37    13    37    1
    38    32    38    1
    39    38    39    1
    40    38    40    1
    41    38    41    1
@<TRIPOS>SUBSTRUCTURE
     1 1           1 GROUP             0 ****  ****    0  
@<TRIPOS>MOLECULE
Molecule Name_00001_00320
    41    41     1     0     0
SMALL
NO_CHARGES
****
Generated from the CSD

@<TRIPOS>ATOM
     1 C5      -3.6291  -1.7249   0.6573   C.ar      1 1      0.0000
     2 C4      -3.2098  -0.7191   1.5011   C.ar      1 1      0.0000
     3 C3      -2.5870   0.4059   0.9868   C.ar      1 1      0.0000
     4 C8      -2.3762   0.5401  -0.3769   C.ar      1 1      0.0000
     5 C7      -2.8020  -0.4800  -1.2138   C.ar      1 1      0.0000
     6 C6      -3.4250  -1.6053  -0.7005   C.ar      1 1      0.0000
     7 H4      -3.3680  -0.8088   2.5707   H         1 1      0.0000
     8 C9      -1.6944   1.7650  -0.9368   C.3       1 1      0.0000
     9 H7      -2.6453  -0.3955  -2.2841   H         1 1      0.0000
    10 H6      -3.7530  -2.3947  -1.3687   H         1 1      0.0000
    11 C10     -0.1718   1.6458  -0.9614   C.3       1 1      0.0000
    12 H9A     -2.0554   1.9378  -1.9582   H         1 1      0.0000
    13 C11      0.5034   1.6497   0.4006   C.3       1 1      0.0000
    14 C12      2.0164   1.4998   0.2856   C.3       1 1      0.0000
    15 H12A     2.4734   1.7199   1.2584   H         1 1      0.0000
    16 C13      2.4345   0.1288  -0.1512   C.2       1 1      0.0000
    17 C14      3.9007  -0.1196  -0.3418   C.3       1 1      0.0000
    18 H14B     4.3551   0.7760  -0.7835   H         1 1      0.0000
    19 H14A     4.0380  -0.9447  -1.0513   H         1 1      0.0000
    20 N        1.5404  -0.8210  -0.3408   N.pl3     1 1      0.0000
    21 HN       0.5762  -0.5918  -0.0999   H         1 1      0.0000
    22 C        1.8042  -2.1994  -0.7274   C.3       1 1      0.0000
    23 H1A      1.0941  -2.8750  -0.2551   H         1 1      0.0000
    24 H1C      1.7208  -2.3198  -1.8055   H         1 1      0.0000
    25 H1B      2.8068  -2.4993  -0.4300   H         1 1      0.0000
    26 H10A     0.0932   0.7137  -1.4755   H         1 1      0.0000
    27 H10B     0.2312   2.4794  -1.5497   H         1 1      0.0000
    28 H9B     -1.9745   2.6362  -0.3319   H         1 1      0.0000
    29 H5      -4.1173  -2.6062   1.0598   H         1 1      0.0000
    30 H3      -2.2600   1.1919   1.6594   H         1 1      0.0000
    31 H12B     2.3951   2.2352  -0.4349   H         1 1      0.0000
    32 C15      4.6294  -0.4512   0.9474   C.3       1 1      0.0000
    33 H15A     5.6572  -0.7538   0.7121   H         1 1      0.0000
    34 H15C     4.1334  -1.3008   1.4327   H         1 1      0.0000
    35 OH       0.2037   2.8803   1.0652   O.3       1 1      0.0000
    36 OH1     -0.7721   2.9479   1.2109   H         1 1      0.0000
    37 H22      0.1071   0.8140   0.9979   H         1 1      0.0000
    38 C16      4.6638   0.7166   1.9060   C.3       1 1      0.0000
    39 H16C     3.7503   0.7587   2.4955   H         1 1      0.0000
    40 H16A     5.5051   0.6291   2.5903   H         1 1      0.0000
    41 H16B     4.7624   1.6560   1.3661   H         1 1      0.0000
@<TRIPOS>BOND
     1     1     2   ar
     2     1     6   ar
     3     1    29    1
     4     2     3   ar
     5     2     7    1
     6     3     4   ar
     7     3    30    1
     8     4     5   ar
     9     4     8    1
    10     5     6   ar
    11     5     9    1
    12     6    10    1
    13     8    11    1
    14     8    12    1
    15     8    28    1
    16    11    13    1
    17    11    26    1
    18    11    27    1
    19    13    14    1
    20    14    15    1
    21    14    16    1
    22    14    31    1
    23    16    17    1
    24    16    20    2
    25    17    18    1
    26    17    19    1
    27    17    32    1
    28    20    21    1
    29    20    22    1
    30    22    23    1
    31    22    24    1
    32    22    25    1
    33    32    33    1
    34    32    34    1
    35    13    35    1
    36    35    36    1
    37    13    37    1
    38    32    38    1
    39    38    39    1
    40    38    40    1
    41    38    41    1
@<TRIPOS>SUBSTRUCTURE
     1 1           1 GROUP             0 ****  ****    0  
@<TRIPOS>MOLECULE
Molecule Name_00001_00321
    41    41     1     0     0
SMALL
NO_CHARGES
****
Generated from the CSD

@<TRIPOS>ATOM
     1 C5      -3.5039  -1.5237   1.2115   C.ar      1 1      0.0000
     2 C4      -3.1540  -0.2791   1.6888   C.ar      1 1      0.0000
     3 C3      -2.5857   0.6567   0.8406   C.ar      1 1      0.0000
     4 C8      -2.3610   0.3606  -0.4951   C.ar      1 1      0.0000
     5 C7      -2.7168  -0.8957  -0.9612   C.ar      1 1      0.0000
     6 C6      -3.2851  -1.8321  -0.1138   C.ar      1 1      0.0000
     7 H4      -3.3240  -0.0318   2.7315   H         1 1      0.0000
     8 C9      -1.7386   1.3797  -1.4186   C.3       1 1      0.0000
     9 H7      -2.5480  -1.1483  -2.0028   H         1 1      0.0000
    10 H6      -3.5586  -2.8108  -0.4941   H         1 1      0.0000
    11 C10     -0.2116   1.3460  -1.4076   C.3       1 1      0.0000
    12 H9A     -2.0923   1.1967  -2.4407   H         1 1      0.0000
    13 C11      0.4407   1.8228  -0.1198   C.3       1 1      0.0000
    14 C12      1.9611   1.7287  -0.1839   C.3       1 1      0.0000
    15 H12A     2.3904   2.2798   0.6620   H         1 1      0.0000
    16 C13      2.4594   0.3158  -0.1493   C.2       1 1      0.0000
    17 C14      3.9408   0.1023  -0.2366   C.3       1 1      0.0000
    18 H14B     4.3561   0.8093  -0.9652   H         1 1      0.0000
    19 H14A     4.1383  -0.9105  -0.6084   H         1 1      0.0000
    20 N        1.6197  -0.6930  -0.0284   N.pl3     1 1      0.0000
    21 HN       0.6392  -0.4530   0.1170   H         1 1      0.0000
    22 C        1.9629  -2.1052   0.0548   C.3       1 1      0.0000
    23 H1A      1.2907  -2.6261   0.7335   H         1 1      0.0000
    24 H1C      1.8903  -2.5776  -0.9226   H         1 1      0.0000
    25 H1B      2.9798  -2.2352   0.4187   H         1 1      0.0000
    26 H10A     0.1123   0.3153  -1.5977   H         1 1      0.0000
    27 H10B     0.1544   1.9700  -2.2323   H         1 1      0.0000
    28 H9B     -2.0757   2.3809  -1.1229   H         1 1      0.0000
    29 H5      -3.9494  -2.2570   1.8757   H         1 1      0.0000
    30 H3      -2.3131   1.6335   1.2261   H         1 1      0.0000
    31 H12B     2.3108   2.2081  -1.1065   H         1 1      0.0000
    32 C15      4.6568   0.2897   1.0882   C.3       1 1      0.0000
    33 H15A     4.4339   1.2901   1.4792   H         1 1      0.0000
    34 H15C     5.7397   0.2286   0.9237   H         1 1      0.0000
    35 OH       0.0650   3.1825   0.1165   O.3       1 1      0.0000
    36 OH1     -0.9116   3.2348   0.2629   H         1 1      0.0000
    37 H22      0.0801   1.2012   0.7144   H         1 1      0.0000
    38 C16      4.2516  -0.7444   2.1130   C.3       1 1      0.0000
    39 H16C     4.4816  -1.7476   1.7603   H         1 1      0.0000
    40 H16A     4.7797  -0.5854   3.0509   H         1 1      0.0000
    41 H16B     3.1833  -0.6918   2.3124   H         1 1      0.0000
@<TRIPOS>BOND
     1     1     2   ar
     2     1     6   ar
     3     1    29    1
     4     2     3   ar
     5     2     7    1
     6     3     4   ar
     7     3    30    1
     8     4     5   ar
     9     4     8    1
    10     5     6   ar
    11     5     9    1
    12     6    10    1
    13     8    11    1
    14     8    12    1
    15     8    28    1
    16    11    13    1
    17    11    26    1
    18    11    27    1
    19    13    14    1
    20    14    15    1
    21    14    16    1
    22    14    31    1
    23    16    17    1
    24    16    20    2
    25    17    18    1
    26    17    19    1
    27    17    32    1
    28    20    21    1
    29    20    22    1
    30    22    23    1
    31    22    24    1
    32    22    25    1
    33    32    33    1
    34    32    34    1
    35    13    35    1
    36    35    36    1
    37    13    37    1
    38    32    38    1
    39    38    39    1
    40    38    40    1
    41    38    41    1
@<TRIPOS>SUBSTRUCTURE
     1 1           1 GROUP             0 ****  ****    0  
@<TRIPOS>MOLECULE
Molecule Name_00001_00322
    41    41     1     0     0
SMALL
NO_CHARGES
****
Generated from the CSD

@<TRIPOS>ATOM
     1 C5      -3.8230   1.1281  -1.1612   C.ar      1 1      0.0000
     2 C4      -3.4091  -0.1728  -1.3500   C.ar      1 1      0.0000
     3 C3      -2.6228  -0.7978  -0.3966   C.ar      1 1      0.0000
     4 C8      -2.2410  -0.1309   0.7574   C.ar      1 1      0.0000
     5 C7      -2.6636   1.1777   0.9335   C.ar      1 1      0.0000
     6 C6      -3.4500   1.8036  -0.0193   C.ar      1 1      0.0000
     7 H4      -3.7000  -0.7085  -2.2475   H         1 1      0.0000
     8 C9      -1.3812  -0.8114   1.7949   C.3       1 1      0.0000
     9 H7      -2.3747   1.7182   1.8289   H         1 1      0.0000
    10 H6      -3.7732   2.8280   0.1336   H         1 1      0.0000
    11 C10      0.1146  -0.6777   1.5161   C.3       1 1      0.0000
    12 H9A     -1.6009  -0.3789   2.7788   H         1 1      0.0000
    13 C11      0.6222  -1.4446   0.3056   C.3       1 1      0.0000
    14 C12      2.1157  -1.2327   0.0835   C.3       1 1      0.0000
    15 H12A     2.4765  -1.9646  -0.6496   H         1 1      0.0000
    16 C13      2.4425   0.1467  -0.4022   C.2       1 1      0.0000
    17 C14      3.8876   0.4769  -0.6267   C.3       1 1      0.0000
    18 H14B     3.9531   1.2928  -1.3571   H         1 1      0.0000
    19 H14A     4.3945  -0.3950  -1.0580   H         1 1      0.0000
    20 N        1.4867   1.0234  -0.6373   N.pl3     1 1      0.0000
    21 HN       0.5285   0.6861  -0.5463   H         1 1      0.0000
    22 C        1.6541   2.3782  -1.1427   C.3       1 1      0.0000
    23 H1A      0.7032   2.7835  -1.4820   H         1 1      0.0000
    24 H1C      2.0440   3.0335  -0.3667   H         1 1      0.0000
    25 H1B      2.3482   2.3954  -1.9803   H         1 1      0.0000
    26 H10A     0.3454   0.3852   1.3731   H         1 1      0.0000
    27 H10B     0.6639  -1.0240   2.4003   H         1 1      0.0000
    28 H9B     -1.6436  -1.8760   1.8321   H         1 1      0.0000
    29 H5      -4.4393   1.6180  -1.9078   H         1 1      0.0000
    30 H3      -2.3015  -1.8220  -0.5547   H         1 1      0.0000
    31 H12B     2.6470  -1.4147   1.0259   H         1 1      0.0000
    32 C15      4.6149   0.8946   0.6380   C.3       1 1      0.0000
    33 H15A     5.6831   1.0108   0.4170   H         1 1      0.0000
    34 H15C     4.5133   0.1023   1.3899   H         1 1      0.0000
    35 OH       0.3706  -2.8393   0.4993   O.3       1 1      0.0000
    36 OH1     -0.6050  -3.0001   0.5135   H         1 1      0.0000
    37 H22      0.0772  -1.1028  -0.5878   H         1 1      0.0000
    38 C16      4.0829   2.1896   1.2070   C.3       1 1      0.0000
    39 H16C     3.0280   2.0967   1.4564   H         1 1      0.0000
    40 H16A     4.6221   2.4638   2.1114   H         1 1      0.0000
    41 H16B     4.1914   2.9997   0.4889   H         1 1      0.0000
@<TRIPOS>BOND
     1     1     2   ar
     2     1     6   ar
     3     1    29    1
     4     2     3   ar
     5     2     7    1
     6     3     4   ar
     7     3    30    1
     8     4     5   ar
     9     4     8    1
    10     5     6   ar
    11     5     9    1
    12     6    10    1
    13     8    11    1
    14     8    12    1
    15     8    28    1
    16    11    13    1
    17    11    26    1
    18    11    27    1
    19    13    14    1
    20    14    15    1
    21    14    16    1
    22    14    31    1
    23    16    17    1
    24    16    20    2
    25    17    18    1
    26    17    19    1
    27    17    32    1
    28    20    21    1
    29    20    22    1
    30    22    23    1
    31    22    24    1
    32    22    25    1
    33    32    33    1
    34    32    34    1
    35    13    35    1
    36    35    36    1
    37    13    37    1
    38    32    38    1
    39    38    39    1
    40    38    40    1
    41    38    41    1
@<TRIPOS>SUBSTRUCTURE
     1 1           1 GROUP             0 ****  ****    0  
@<TRIPOS>MOLECULE
Molecule Name_00001_00323
    41    41     1     0     0
SMALL
NO_CHARGES
****
Generated from the CSD

@<TRIPOS>ATOM
     1 C5      -3.7803  -1.3633  -0.9270   C.ar      1 1      0.0000
     2 C4      -3.4008  -1.3991   0.3974   C.ar      1 1      0.0000
     3 C3      -2.6656  -0.3577   0.9387   C.ar      1 1      0.0000
     4 C8      -2.3013   0.7324   0.1635   C.ar      1 1      0.0000
     5 C7      -2.6887   0.7545  -1.1674   C.ar      1 1      0.0000
     6 C6      -3.4239  -0.2864  -1.7097   C.ar      1 1      0.0000
     7 H4      -3.6787  -2.2450   1.0174   H         1 1      0.0000
     8 C9      -1.4971   1.8658   0.7531   C.3       1 1      0.0000
     9 H7      -2.4125   1.5976  -1.7920   H         1 1      0.0000
    10 H6      -3.7200  -0.2539  -2.7530   H         1 1      0.0000
    11 C10      0.0104   1.6280   0.6906   C.3       1 1      0.0000
    12 H9A     -1.7353   2.7902   0.2125   H         1 1      0.0000
    13 C11      0.5332   0.5240   1.5955   C.3       1 1      0.0000
    14 C12      2.0387   0.3331   1.4481   C.3       1 1      0.0000
    15 H12A     2.4016  -0.3008   2.2666   H         1 1      0.0000
    16 C13      2.4216  -0.2911   0.1407   C.2       1 1      0.0000
    17 C14      3.8817  -0.5097  -0.1204   C.3       1 1      0.0000
    18 H14B     3.9925  -1.3442  -0.8238   H         1 1      0.0000
    19 H14A     4.3766  -0.7974   0.8152   H         1 1      0.0000
    20 N        1.5005  -0.6472  -0.7324   N.pl3     1 1      0.0000
    21 HN       0.5301  -0.5468  -0.4353   H         1 1      0.0000
    22 C        1.7239  -1.2927  -2.0178   C.3       1 1      0.0000
    23 H1A      0.8200  -1.7917  -2.3610   H         1 1      0.0000
    24 H1C      2.0142  -0.5626  -2.7704   H         1 1      0.0000
    25 H1B      2.5146  -2.0363  -1.9450   H         1 1      0.0000
    26 H10A     0.2785   1.3821  -0.3443   H         1 1      0.0000
    27 H10B     0.5196   2.5628   0.9558   H         1 1      0.0000
    28 H9B     -1.7933   2.0057   1.8000   H         1 1      0.0000
    29 H5      -4.3565  -2.1789  -1.3514   H         1 1      0.0000
    30 H3      -2.3712  -0.3955   1.9823   H         1 1      0.0000
    31 H12B     2.5334   1.3082   1.5368   H         1 1      0.0000
    32 C15      4.5813   0.7085  -0.6942   C.3       1 1      0.0000
    33 H15A     4.0543   1.0326  -1.6001   H         1 1      0.0000
    34 H15C     5.6036   0.4340  -0.9822   H         1 1      0.0000
    35 OH       0.2338   0.8551   2.9544   O.3       1 1      0.0000
    36 OH1     -0.7468   0.8888   3.0779   H         1 1      0.0000
    37 H22      0.0275  -0.4192   1.3367   H         1 1      0.0000
    38 C16      4.6338   1.8573   0.2861   C.3       1 1      0.0000
    39 H16C     4.7553   1.4910   1.3034   H         1 1      0.0000
    40 H16A     5.4687   2.5180   0.0618   H         1 1      0.0000
    41 H16B     3.7176   2.4426   0.2438   H         1 1      0.0000
@<TRIPOS>BOND
     1     1     2   ar
     2     1     6   ar
     3     1    29    1
     4     2     3   ar
     5     2     7    1
     6     3     4   ar
     7     3    30    1
     8     4     5   ar
     9     4     8    1
    10     5     6   ar
    11     5     9    1
    12     6    10    1
    13     8    11    1
    14     8    12    1
    15     8    28    1
    16    11    13    1
    17    11    26    1
    18    11    27    1
    19    13    14    1
    20    14    15    1
    21    14    16    1
    22    14    31    1
    23    16    17    1
    24    16    20    2
    25    17    18    1
    26    17    19    1
    27    17    32    1
    28    20    21    1
    29    20    22    1
    30    22    23    1
    31    22    24    1
    32    22    25    1
    33    32    33    1
    34    32    34    1
    35    13    35    1
    36    35    36    1
    37    13    37    1
    38    32    38    1
    39    38    39    1
    40    38    40    1
    41    38    41    1
@<TRIPOS>SUBSTRUCTURE
     1 1           1 GROUP             0 ****  ****    0  
@<TRIPOS>MOLECULE
Molecule Name_00001_00324
    41    41     1     0     0
SMALL
NO_CHARGES
****
Generated from the CSD

@<TRIPOS>ATOM
     1 C5      -4.5086   0.0161   1.4983   C.ar      1 1      0.0000
     2 C4      -4.7351  -0.3830   0.1988   C.ar      1 1      0.0000
     3 C3      -3.7011  -0.3720  -0.7225   C.ar      1 1      0.0000
     4 C8      -2.4280   0.0370  -0.3563   C.ar      1 1      0.0000
     5 C7      -2.2149   0.4369   0.9539   C.ar      1 1      0.0000
     6 C6      -3.2483   0.4263   1.8759   C.ar      1 1      0.0000
     7 H4      -5.7258  -0.7064  -0.1033   H         1 1      0.0000
     8 C9      -1.3020   0.0518  -1.3616   C.3       1 1      0.0000
     9 H7      -1.2264   0.7621   1.2608   H         1 1      0.0000
    10 H6      -3.0652   0.7417   2.8978   H         1 1      0.0000
    11 C10      0.0228   0.5315  -0.7718   C.3       1 1      0.0000
    12 H9A     -1.1687  -0.9608  -1.7618   H         1 1      0.0000
    13 C11      1.1926   0.5662  -1.7420   C.3       1 1      0.0000
    14 C12      2.4746   1.0456  -1.0701   C.3       1 1      0.0000
    15 H12A     2.2924   2.0228  -0.6063   H         1 1      0.0000
    16 C13      2.9753   0.0950  -0.0254   C.2       1 1      0.0000
    17 C14      4.0755   0.5726   0.8742   C.3       1 1      0.0000
    18 H14B     4.7598   1.2008   0.2906   H         1 1      0.0000
    19 H14A     4.6465  -0.2911   1.2362   H         1 1      0.0000
    20 N        2.4493  -1.1069   0.1010   N.pl3     1 1      0.0000
    21 HN       1.6450  -1.3152  -0.4905   H         1 1      0.0000
    22 C        2.8093  -2.1146   1.0879   C.3       1 1      0.0000
    23 H1A      1.9354  -2.6879   1.3901   H         1 1      0.0000
    24 H1C      3.5444  -2.8063   0.6817   H         1 1      0.0000
    25 H1B      3.2347  -1.6516   1.9757   H         1 1      0.0000
    26 H10A    -0.1236   1.5421  -0.3711   H         1 1      0.0000
    27 H10B     0.2872  -0.1261   0.0655   H         1 1      0.0000
    28 H9B     -1.5789   0.7070  -2.1968   H         1 1      0.0000
    29 H5      -5.3184   0.0074   2.2204   H         1 1      0.0000
    30 H3      -3.8897  -0.6875  -1.7433   H         1 1      0.0000
    31 H12B     3.2509   1.1782  -1.8338   H         1 1      0.0000
    32 C15      3.5778   1.3695   2.0658   C.3       1 1      0.0000
    33 H15A     4.4164   1.5598   2.7469   H         1 1      0.0000
    34 H15C     2.8331   0.7757   2.6102   H         1 1      0.0000
    35 OH       1.4016  -0.7480  -2.2663   O.3       1 1      0.0000
    36 OH1      0.5909  -1.0439  -2.7493   H         1 1      0.0000
    37 H22      0.9486   1.2482  -2.5712   H         1 1      0.0000
    38 C16      2.9604   2.6876   1.6597   C.3       1 1      0.0000
    39 H16C     1.9508   2.5405   1.2818   H         1 1      0.0000
    40 H16A     2.9092   3.3672   2.5078   H         1 1      0.0000
    41 H16B     3.5486   3.1645   0.8784   H         1 1      0.0000
@<TRIPOS>BOND
     1     1     2   ar
     2     1     6   ar
     3     1    29    1
     4     2     3   ar
     5     2     7    1
     6     3     4   ar
     7     3    30    1
     8     4     5   ar
     9     4     8    1
    10     5     6   ar
    11     5     9    1
    12     6    10    1
    13     8    11    1
    14     8    12    1
    15     8    28    1
    16    11    13    1
    17    11    26    1
    18    11    27    1
    19    13    14    1
    20    14    15    1
    21    14    16    1
    22    14    31    1
    23    16    17    1
    24    16    20    2
    25    17    18    1
    26    17    19    1
    27    17    32    1
    28    20    21    1
    29    20    22    1
    30    22    23    1
    31    22    24    1
    32    22    25    1
    33    32    33    1
    34    32    34    1
    35    13    35    1
    36    35    36    1
    37    13    37    1
    38    32    38    1
    39    38    39    1
    40    38    40    1
    41    38    41    1
@<TRIPOS>SUBSTRUCTURE
     1 1           1 GROUP             0 ****  ****    0  
@<TRIPOS>MOLECULE
Molecule Name_00001_00325
    41    41     1     0     0
SMALL
NO_CHARGES
****
Generated from the CSD

@<TRIPOS>ATOM
     1 C5      -4.4473   0.3432   1.5597   C.ar      1 1      0.0000
     2 C4      -4.6928  -0.4070   0.4300   C.ar      1 1      0.0000
     3 C3      -3.6861  -0.6180  -0.4973   C.ar      1 1      0.0000
     4 C8      -2.4214  -0.0827  -0.3068   C.ar      1 1      0.0000
     5 C7      -2.1890   0.6708   0.8335   C.ar      1 1      0.0000
     6 C6      -3.1951   0.8824   1.7614   C.ar      1 1      0.0000
     7 H4      -5.6772  -0.8333   0.2667   H         1 1      0.0000
     8 C9      -1.3252  -0.3102  -1.3194   C.3       1 1      0.0000
     9 H7      -1.2067   1.1001   1.0010   H         1 1      0.0000
    10 H6      -2.9971   1.4740   2.6491   H         1 1      0.0000
    11 C10     -0.0057   0.3565  -0.9354   C.3       1 1      0.0000
    12 H9A     -1.1610  -1.3892  -1.4299   H         1 1      0.0000
    13 C11      1.1343   0.1593  -1.9215   C.3       1 1      0.0000
    14 C12      2.4131   0.8479  -1.4574   C.3       1 1      0.0000
    15 H12A     2.2037   1.9097  -1.2784   H         1 1      0.0000
    16 C13      2.9792   0.2444  -0.2081   C.2       1 1      0.0000
    17 C14      4.0772   0.9931   0.4858   C.3       1 1      0.0000
    18 H14B     4.7514   1.4116  -0.2717   H         1 1      0.0000
    19 H14A     4.6602   0.2941   1.0979   H         1 1      0.0000
    20 N        2.5101  -0.8932   0.2644   N.pl3     1 1      0.0000
    21 HN       1.7027  -1.2870  -0.2184   H         1 1      0.0000
    22 C        2.9370  -1.5727   1.4789   C.3       1 1      0.0000
    23 H1A      2.0920  -2.0491   1.9716   H         1 1      0.0000
    24 H1C      3.6738  -2.3405   1.2522   H         1 1      0.0000
    25 H1B      3.3849  -0.8698   2.1781   H         1 1      0.0000
    26 H10A    -0.1829   1.4333  -0.8233   H         1 1      0.0000
    27 H10B     0.3089  -0.0348   0.0399   H         1 1      0.0000
    28 H9B     -1.6522   0.0789  -2.2916   H         1 1      0.0000
    29 H5      -5.2357   0.5085   2.2866   H         1 1      0.0000
    30 H3      -3.8896  -1.2096  -1.3838   H         1 1      0.0000
    31 H12B     3.1630   0.7855  -2.2557   H         1 1      0.0000
    32 C15      3.5748   2.1208   1.3683   C.3       1 1      0.0000
    33 H15A     2.9634   2.8039   0.7660   H         1 1      0.0000
    34 H15C     4.4325   2.6883   1.7502   H         1 1      0.0000
    35 OH       1.3839  -1.2412  -2.0703   O.3       1 1      0.0000
    36 OH1      0.5831  -1.6811  -2.4489   H         1 1      0.0000
    37 H22      0.8390   0.5763  -2.8967   H         1 1      0.0000
    38 C16      2.7543   1.6181   2.5335   C.3       1 1      0.0000
    39 H16C     3.3435   0.9537   3.1621   H         1 1      0.0000
    40 H16A     2.4081   2.4469   3.1475   H         1 1      0.0000
    41 H16B     1.8829   1.0688   2.1831   H         1 1      0.0000
@<TRIPOS>BOND
     1     1     2   ar
     2     1     6   ar
     3     1    29    1
     4     2     3   ar
     5     2     7    1
     6     3     4   ar
     7     3    30    1
     8     4     5   ar
     9     4     8    1
    10     5     6   ar
    11     5     9    1
    12     6    10    1
    13     8    11    1
    14     8    12    1
    15     8    28    1
    16    11    13    1
    17    11    26    1
    18    11    27    1
    19    13    14    1
    20    14    15    1
    21    14    16    1
    22    14    31    1
    23    16    17    1
    24    16    20    2
    25    17    18    1
    26    17    19    1
    27    17    32    1
    28    20    21    1
    29    20    22    1
    30    22    23    1
    31    22    24    1
    32    22    25    1
    33    32    33    1
    34    32    34    1
    35    13    35    1
    36    35    36    1
    37    13    37    1
    38    32    38    1
    39    38    39    1
    40    38    40    1
    41    38    41    1
@<TRIPOS>SUBSTRUCTURE
     1 1           1 GROUP             0 ****  ****    0  
@<TRIPOS>MOLECULE
Molecule Name_00001_00326
    41    41     1     0     0
SMALL
NO_CHARGES
****
Generated from the CSD

@<TRIPOS>ATOM
     1 C5      -4.9211   0.1604   1.2020   C.ar      1 1      0.0000
     2 C4      -4.9534  -0.7017   0.1273   C.ar      1 1      0.0000
     3 C3      -3.8268  -0.8755  -0.6592   C.ar      1 1      0.0000
     4 C8      -2.6539  -0.1905  -0.3810   C.ar      1 1      0.0000
     5 C7      -2.6362   0.6743   0.7024   C.ar      1 1      0.0000
     6 C6      -3.7622   0.8487   1.4895   C.ar      1 1      0.0000
     7 H4      -5.8635  -1.2456  -0.1032   H         1 1      0.0000
     8 C9      -1.4271  -0.3777  -1.2405   C.3       1 1      0.0000
     9 H7      -1.7288   1.2213   0.9366   H         1 1      0.0000
    10 H6      -3.7320   1.5288   2.3344   H         1 1      0.0000
    11 C10     -0.2363   0.4592  -0.7771   C.3       1 1      0.0000
    12 H9A     -1.1439  -1.4375  -1.2307   H         1 1      0.0000
    13 C11      1.0276   0.3090  -1.6084   C.3       1 1      0.0000
    14 C12      2.1663   1.1697  -1.0724   C.3       1 1      0.0000
    15 H12A     1.8320   2.2131  -1.0179   H         1 1      0.0000
    16 C13      2.6362   0.7361   0.2829   C.2       1 1      0.0000
    17 C14      3.5628   1.6553   1.0207   C.3       1 1      0.0000
    18 H14B     3.4738   1.4563   2.0958   H         1 1      0.0000
    19 H14A     3.2534   2.6936   0.8495   H         1 1      0.0000
    20 N        2.2299  -0.4039   0.8051   N.pl3     1 1      0.0000
    21 HN       1.5295  -0.9223   0.2751   H         1 1      0.0000
    22 C        2.5740  -0.9310   2.1177   C.3       1 1      0.0000
    23 H1A      1.8608  -1.6924   2.4265   H         1 1      0.0000
    24 H1C      3.5648  -1.3802   2.1048   H         1 1      0.0000
    25 H1B      2.5706  -0.1403   2.8649   H         1 1      0.0000
    26 H10A    -0.5323   1.5155  -0.7866   H         1 1      0.0000
    27 H10B    -0.0033   0.1856   0.2593   H         1 1      0.0000
    28 H9B     -1.6725  -0.1073  -2.2750   H         1 1      0.0000
    29 H5      -5.8034   0.2965   1.8186   H         1 1      0.0000
    30 H3      -3.8625  -1.5560  -1.5035   H         1 1      0.0000
    31 H12B     3.0089   1.1255  -1.7735   H         1 1      0.0000
    32 C15      5.0166   1.5004   0.6144   C.3       1 1      0.0000
    33 H15A     5.6134   2.2756   1.1106   H         1 1      0.0000
    34 H15C     5.1057   1.6517  -0.4685   H         1 1      0.0000
    35 OH       1.4319  -1.0630  -1.5968   O.3       1 1      0.0000
    36 OH1      0.7173  -1.6213  -1.9913   H         1 1      0.0000
    37 H22      0.8110   0.6101  -2.6450   H         1 1      0.0000
    38 C16      5.5729   0.1418   0.9727   C.3       1 1      0.0000
    39 H16C     5.0126  -0.6477   0.4762   H         1 1      0.0000
    40 H16A     6.6148   0.0596   0.6703   H         1 1      0.0000
    41 H16B     5.5173  -0.0269   2.0462   H         1 1      0.0000
@<TRIPOS>BOND
     1     1     2   ar
     2     1     6   ar
     3     1    29    1
     4     2     3   ar
     5     2     7    1
     6     3     4   ar
     7     3    30    1
     8     4     5   ar
     9     4     8    1
    10     5     6   ar
    11     5     9    1
    12     6    10    1
    13     8    11    1
    14     8    12    1
    15     8    28    1
    16    11    13    1
    17    11    26    1
    18    11    27    1
    19    13    14    1
    20    14    15    1
    21    14    16    1
    22    14    31    1
    23    16    17    1
    24    16    20    2
    25    17    18    1
    26    17    19    1
    27    17    32    1
    28    20    21    1
    29    20    22    1
    30    22    23    1
    31    22    24    1
    32    22    25    1
    33    32    33    1
    34    32    34    1
    35    13    35    1
    36    35    36    1
    37    13    37    1
    38    32    38    1
    39    38    39    1
    40    38    40    1
    41    38    41    1
@<TRIPOS>SUBSTRUCTURE
     1 1           1 GROUP             0 ****  ****    0  
@<TRIPOS>MOLECULE
Molecule Name_00001_00327
    41    41     1     0     0
SMALL
NO_CHARGES
****
Generated from the CSD

@<TRIPOS>ATOM
     1 C5      -4.9062  -0.4811   1.0908   C.ar      1 1      0.0000
     2 C4      -4.9589  -0.5824  -0.2827   C.ar      1 1      0.0000
     3 C3      -3.8356  -0.3057  -1.0441   C.ar      1 1      0.0000
     4 C8      -2.6458   0.0746  -0.4425   C.ar      1 1      0.0000
     5 C7      -2.6077   0.1735   0.9399   C.ar      1 1      0.0000
     6 C6      -3.7304  -0.1029   1.7022   C.ar      1 1      0.0000
     7 H4      -5.8824  -0.8794  -0.7685   H         1 1      0.0000
     8 C9      -1.4226   0.3792  -1.2730   C.3       1 1      0.0000
     9 H7      -1.6869   0.4711   1.4305   H         1 1      0.0000
    10 H6      -3.6842  -0.0215   2.7831   H         1 1      0.0000
    11 C10     -0.2114   0.7796  -0.4330   C.3       1 1      0.0000
    12 H9A     -1.1671  -0.5060  -1.8684   H         1 1      0.0000
    13 C11      1.0499   1.0978  -1.2197   C.3       1 1      0.0000
    14 C12      2.2095   1.4782  -0.3057   C.3       1 1      0.0000
    15 H12A     1.9028   2.3161   0.3325   H         1 1      0.0000
    16 C13      2.6635   0.3441   0.5621   C.2       1 1      0.0000
    17 C14      3.6089   0.6644   1.6808   C.3       1 1      0.0000
    18 H14B     3.5064  -0.1021   2.4588   H         1 1      0.0000
    19 H14A     3.3289   1.6271   2.1257   H         1 1      0.0000
    20 N        2.2281  -0.8822   0.3524   N.pl3     1 1      0.0000
    21 HN       1.5176  -0.9946  -0.3706   H         1 1      0.0000
    22 C        2.5543  -2.0665   1.1335   C.3       1 1      0.0000
    23 H1A      1.8144  -2.8484   0.9756   H         1 1      0.0000
    24 H1C      3.5283  -2.4594   0.8491   H         1 1      0.0000
    25 H1B      2.5803  -1.8340   2.1959   H         1 1      0.0000
    26 H10A    -0.4797   1.6620   0.1609   H         1 1      0.0000
    27 H10B     0.0124  -0.0379   0.2635   H         1 1      0.0000
    28 H9B     -1.6588   1.1932  -1.9695   H         1 1      0.0000
    29 H5      -5.7860  -0.6980   1.6876   H         1 1      0.0000
    30 H3      -3.8873  -0.3877  -2.1247   H         1 1      0.0000
    31 H12B     3.0527   1.8177  -0.9198   H         1 1      0.0000
    32 C15      5.0611   0.7263   1.2449   C.3       1 1      0.0000
    33 H15A     5.3329  -0.2213   0.7637   H         1 1      0.0000
    34 H15C     5.6977   0.8465   2.1301   H         1 1      0.0000
    35 OH       1.4185  -0.0485  -1.9917   O.3       1 1      0.0000
    36 OH1      0.6902  -0.2697  -2.6232   H         1 1      0.0000
    37 H22      0.8432   1.9375  -1.9012   H         1 1      0.0000
    38 C16      5.3262   1.8631   0.2852   C.3       1 1      0.0000
    39 H16C     4.7303   2.7352   0.5464   H         1 1      0.0000
    40 H16A     6.3753   2.1504   0.3079   H         1 1      0.0000
    41 H16B     5.0758   1.5743  -0.7335   H         1 1      0.0000
@<TRIPOS>BOND
     1     1     2   ar
     2     1     6   ar
     3     1    29    1
     4     2     3   ar
     5     2     7    1
     6     3     4   ar
     7     3    30    1
     8     4     5   ar
     9     4     8    1
    10     5     6   ar
    11     5     9    1
    12     6    10    1
    13     8    11    1
    14     8    12    1
    15     8    28    1
    16    11    13    1
    17    11    26    1
    18    11    27    1
    19    13    14    1
    20    14    15    1
    21    14    16    1
    22    14    31    1
    23    16    17    1
    24    16    20    2
    25    17    18    1
    26    17    19    1
    27    17    32    1
    28    20    21    1
    29    20    22    1
    30    22    23    1
    31    22    24    1
    32    22    25    1
    33    32    33    1
    34    32    34    1
    35    13    35    1
    36    35    36    1
    37    13    37    1
    38    32    38    1
    39    38    39    1
    40    38    40    1
    41    38    41    1
@<TRIPOS>SUBSTRUCTURE
     1 1           1 GROUP             0 ****  ****    0  
@<TRIPOS>MOLECULE
Molecule Name_00001_00328
    41    41     1     0     0
SMALL
NO_CHARGES
****
Generated from the CSD

@<TRIPOS>ATOM
     1 C5      -5.4995   0.0173  -0.1451   C.ar      1 1      0.0000
     2 C4      -4.8949  -1.1792  -0.4648   C.ar      1 1      0.0000
     3 C3      -3.5180  -1.3055  -0.3864   C.ar      1 1      0.0000
     4 C8      -2.7285  -0.2382   0.0132   C.ar      1 1      0.0000
     5 C7      -3.3500   0.9597   0.3305   C.ar      1 1      0.0000
     6 C6      -4.7269   1.0871   0.2525   C.ar      1 1      0.0000
     7 H4      -5.4990  -2.0240  -0.7786   H         1 1      0.0000
     8 C9      -1.2274  -0.3754   0.0953   C.3       1 1      0.0000
     9 H7      -2.7504   1.8079   0.6440   H         1 1      0.0000
    10 H6      -5.1983   2.0311   0.5049   H         1 1      0.0000
    11 C10     -0.5320   0.9049   0.5541   C.3       1 1      0.0000
    12 H9A     -0.9815  -1.1849   0.7936   H         1 1      0.0000
    13 C11      0.9827   0.8227   0.6546   C.3       1 1      0.0000
    14 C12      1.6396   0.7323  -0.7184   C.3       1 1      0.0000
    15 H12A     1.7543   1.7434  -1.1282   H         1 1      0.0000
    16 C13      2.9813   0.0661  -0.6796   C.2       1 1      0.0000
    17 C14      4.1057   0.8123  -0.0265   C.3       1 1      0.0000
    18 H14B     3.9536   1.8872  -0.1845   H         1 1      0.0000
    19 H14A     5.0508   0.5371  -0.5102   H         1 1      0.0000
    20 N        3.1516  -1.1383  -1.1875   N.pl3     1 1      0.0000
    21 HN       2.3142  -1.6098  -1.5291   H         1 1      0.0000
    22 C        4.3819  -1.9162  -1.1878   C.3       1 1      0.0000
    23 H1A      4.1672  -2.9774  -1.0806   H         1 1      0.0000
    24 H1C      4.9279  -1.7733  -2.1180   H         1 1      0.0000
    25 H1B      5.0290  -1.6166  -0.3662   H         1 1      0.0000
    26 H10A    -0.7884   1.7076  -0.1483   H         1 1      0.0000
    27 H10B    -0.9295   1.1811   1.5385   H         1 1      0.0000
    28 H9B     -0.8410  -0.6574  -0.8919   H         1 1      0.0000
    29 H5      -6.5782   0.1166  -0.2061   H         1 1      0.0000
    30 H3      -3.0514  -2.2515  -0.6407   H         1 1      0.0000
    31 H12B     0.9817   0.1713  -1.3936   H         1 1      0.0000
    32 C15      4.2194   0.5494   1.4638   C.3       1 1      0.0000
    33 H15A     4.3828  -0.5227   1.6285   H         1 1      0.0000
    34 H15C     3.2748   0.8223   1.9504   H         1 1      0.0000
    35 OH       1.4681   1.9860   1.3305   O.3       1 1      0.0000
    36 OH1      1.0637   2.0375   2.2315   H         1 1      0.0000
    37 H22      1.2538  -0.0704   1.2386   H         1 1      0.0000
    38 C16      5.3481   1.3264   2.1009   C.3       1 1      0.0000
    39 H16C     5.2008   2.3966   1.9718   H         1 1      0.0000
    40 H16A     5.4056   1.1184   3.1673   H         1 1      0.0000
    41 H16B     6.3022   1.0589   1.6516   H         1 1      0.0000
@<TRIPOS>BOND
     1     1     2   ar
     2     1     6   ar
     3     1    29    1
     4     2     3   ar
     5     2     7    1
     6     3     4   ar
     7     3    30    1
     8     4     5   ar
     9     4     8    1
    10     5     6   ar
    11     5     9    1
    12     6    10    1
    13     8    11    1
    14     8    12    1
    15     8    28    1
    16    11    13    1
    17    11    26    1
    18    11    27    1
    19    13    14    1
    20    14    15    1
    21    14    16    1
    22    14    31    1
    23    16    17    1
    24    16    20    2
    25    17    18    1
    26    17    19    1
    27    17    32    1
    28    20    21    1
    29    20    22    1
    30    22    23    1
    31    22    24    1
    32    22    25    1
    33    32    33    1
    34    32    34    1
    35    13    35    1
    36    35    36    1
    37    13    37    1
    38    32    38    1
    39    38    39    1
    40    38    40    1
    41    38    41    1
@<TRIPOS>SUBSTRUCTURE
     1 1           1 GROUP             0 ****  ****    0  
@<TRIPOS>MOLECULE
Molecule Name_00001_00329
    41    41     1     0     0
SMALL
NO_CHARGES
****
Generated from the CSD

@<TRIPOS>ATOM
     1 C5      -5.5645  -0.0579  -0.1512   C.ar      1 1      0.0000
     2 C4      -5.2130   0.4793   1.0683   C.ar      1 1      0.0000
     3 C3      -3.8784   0.6669   1.3871   C.ar      1 1      0.0000
     4 C8      -2.8787   0.3207   0.4911   C.ar      1 1      0.0000
     5 C7      -3.2468  -0.2198  -0.7314   C.ar      1 1      0.0000
     6 C6      -4.5811  -0.4077  -1.0512   C.ar      1 1      0.0000
     7 H4      -5.9836   0.7559   1.7803   H         1 1      0.0000
     8 C9      -1.4240   0.5223   0.8403   C.3       1 1      0.0000
     9 H7      -2.4800  -0.4989  -1.4465   H         1 1      0.0000
    10 H6      -4.8529  -0.8314  -2.0124   H         1 1      0.0000
    11 C10     -0.4734   0.0828  -0.2716   C.3       1 1      0.0000
    12 H9A     -1.2536   1.5842   1.0564   H         1 1      0.0000
    13 C11      1.0060   0.2639   0.0275   C.3       1 1      0.0000
    14 C12      1.8820  -0.2162  -1.1245   C.3       1 1      0.0000
    15 H12A     1.7647   0.4686  -1.9735   H         1 1      0.0000
    16 C13      3.3330  -0.2965  -0.7588   C.2       1 1      0.0000
    17 C14      3.9053   0.8273   0.0519   C.3       1 1      0.0000
    18 H14B     3.4007   1.7590  -0.2321   H         1 1      0.0000
    19 H14A     4.9695   0.9406  -0.1886   H         1 1      0.0000
    20 N        4.0652  -1.3292  -1.1259   N.pl3     1 1      0.0000
    21 HN       3.5743  -2.0903  -1.5949   H         1 1      0.0000
    22 C        5.4686  -1.5557  -0.8126   C.3       1 1      0.0000
    23 H1A      5.6655  -2.6162  -0.6700   H         1 1      0.0000
    24 H1C      6.1059  -1.1982  -1.6187   H         1 1      0.0000
    25 H1B      5.7505  -1.0330   0.0989   H         1 1      0.0000
    26 H10A    -0.6558  -0.9783  -0.4822   H         1 1      0.0000
    27 H10B    -0.7151   0.6509  -1.1784   H         1 1      0.0000
    28 H9B     -1.1945  -0.0446   1.7509   H         1 1      0.0000
    29 H5      -6.6100  -0.2048  -0.4014   H         1 1      0.0000
    30 H3      -3.6119   1.0900   2.3500   H         1 1      0.0000
    31 H12B     1.5392  -1.2076  -1.4456   H         1 1      0.0000
    32 C15      3.7565   0.6285   1.5489   C.3       1 1      0.0000
    33 H15A     4.2300  -0.3188   1.8349   H         1 1      0.0000
    34 H15C     2.6905   0.5581   1.7984   H         1 1      0.0000
    35 OH       1.2660   1.6497   0.2677   O.3       1 1      0.0000
    36 OH1      0.7217   1.9602   1.0328   H         1 1      0.0000
    37 H22      1.2604  -0.3105   0.9317   H         1 1      0.0000
    38 C16      4.3786   1.7531   2.3438   C.3       1 1      0.0000
    39 H16C     3.9123   2.7044   2.0960   H         1 1      0.0000
    40 H16A     4.2570   1.5840   3.4116   H         1 1      0.0000
    41 H16B     5.4429   1.8321   2.1322   H         1 1      0.0000
@<TRIPOS>BOND
     1     1     2   ar
     2     1     6   ar
     3     1    29    1
     4     2     3   ar
     5     2     7    1
     6     3     4   ar
     7     3    30    1
     8     4     5   ar
     9     4     8    1
    10     5     6   ar
    11     5     9    1
    12     6    10    1
    13     8    11    1
    14     8    12    1
    15     8    28    1
    16    11    13    1
    17    11    26    1
    18    11    27    1
    19    13    14    1
    20    14    15    1
    21    14    16    1
    22    14    31    1
    23    16    17    1
    24    16    20    2
    25    17    18    1
    26    17    19    1
    27    17    32    1
    28    20    21    1
    29    20    22    1
    30    22    23    1
    31    22    24    1
    32    22    25    1
    33    32    33    1
    34    32    34    1
    35    13    35    1
    36    35    36    1
    37    13    37    1
    38    32    38    1
    39    38    39    1
    40    38    40    1
    41    38    41    1
@<TRIPOS>SUBSTRUCTURE
     1 1           1 GROUP             0 ****  ****    0  
@<TRIPOS>MOLECULE
Molecule Name_00001_00330
    41    41     1     0     0
SMALL
NO_CHARGES
****
Generated from the CSD

@<TRIPOS>ATOM
     1 C5      -4.1664  -1.5365   0.2484   C.ar      1 1      0.0000
     2 C4      -4.4998  -0.2997   0.7571   C.ar      1 1      0.0000
     3 C3      -3.6950   0.7978   0.5007   C.ar      1 1      0.0000
     4 C8      -2.5478   0.6732  -0.2677   C.ar      1 1      0.0000
     5 C7      -2.2240  -0.5770  -0.7719   C.ar      1 1      0.0000
     6 C6      -3.0281  -1.6751  -0.5161   C.ar      1 1      0.0000
     7 H4      -5.3947  -0.1857   1.3598   H         1 1      0.0000
     8 C9      -1.6691   1.8692  -0.5442   C.3       1 1      0.0000
     9 H7      -1.3296  -0.6966  -1.3744   H         1 1      0.0000
    10 H6      -2.7614  -2.6468  -0.9185   H         1 1      0.0000
    11 C10     -0.6212   2.1077   0.5412   C.3       1 1      0.0000
    12 H9A     -1.1606   1.7228  -1.5052   H         1 1      0.0000
    13 C11      0.4831   1.0658   0.6199   C.3       1 1      0.0000
    14 C12      1.4269   1.1462  -0.5749   C.3       1 1      0.0000
    15 H12A     1.9426   2.1143  -0.5599   H         1 1      0.0000
    16 C13      2.4478   0.0493  -0.5857   C.2       1 1      0.0000
    17 C14      3.8646   0.4196  -0.2644   C.3       1 1      0.0000
    18 H14B     4.0899   1.3870  -0.7300   H         1 1      0.0000
    19 H14A     4.5407  -0.3243  -0.7032   H         1 1      0.0000
    20 N        2.0996  -1.1940  -0.8513   N.pl3     1 1      0.0000
    21 HN       1.1021  -1.3713  -0.9678   H         1 1      0.0000
    22 C        2.9729  -2.3586  -0.8613   C.3       1 1      0.0000
    23 H1A      2.4433  -3.2407  -0.5075   H         1 1      0.0000
    24 H1C      3.3337  -2.5610  -1.8676   H         1 1      0.0000
    25 H1B      3.8357  -2.2004  -0.2179   H         1 1      0.0000
    26 H10A    -0.1597   3.0874   0.3661   H         1 1      0.0000
    27 H10B    -1.1307   2.1457   1.5119   H         1 1      0.0000
    28 H9B     -2.3004   2.7619  -0.6332   H         1 1      0.0000
    29 H5      -4.7968  -2.3965   0.4488   H         1 1      0.0000
    30 H3      -3.9657   1.7671   0.9062   H         1 1      0.0000
    31 H12B     0.8386   1.0957  -1.4995   H         1 1      0.0000
    32 C15      4.1398   0.5187   1.2246   C.3       1 1      0.0000
    33 H15A     3.8732  -0.4314   1.7038   H         1 1      0.0000
    34 H15C     3.5039   1.3012   1.6568   H         1 1      0.0000
    35 OH       1.2308   1.2701   1.8220   O.3       1 1      0.0000
    36 OH1      0.6282   1.1955   2.6026   H         1 1      0.0000
    37 H22      0.0274   0.0640   0.6472   H         1 1      0.0000
    38 C16      5.5872   0.8349   1.5228   C.3       1 1      0.0000
    39 H16C     5.8741   1.7850   1.0771   H         1 1      0.0000
    40 H16A     5.7547   0.8996   2.5959   H         1 1      0.0000
    41 H16B     6.2409   0.0621   1.1237   H         1 1      0.0000
@<TRIPOS>BOND
     1     1     2   ar
     2     1     6   ar
     3     1    29    1
     4     2     3   ar
     5     2     7    1
     6     3     4   ar
     7     3    30    1
     8     4     5   ar
     9     4     8    1
    10     5     6   ar
    11     5     9    1
    12     6    10    1
    13     8    11    1
    14     8    12    1
    15     8    28    1
    16    11    13    1
    17    11    26    1
    18    11    27    1
    19    13    14    1
    20    14    15    1
    21    14    16    1
    22    14    31    1
    23    16    17    1
    24    16    20    2
    25    17    18    1
    26    17    19    1
    27    17    32    1
    28    20    21    1
    29    20    22    1
    30    22    23    1
    31    22    24    1
    32    22    25    1
    33    32    33    1
    34    32    34    1
    35    13    35    1
    36    35    36    1
    37    13    37    1
    38    32    38    1
    39    38    39    1
    40    38    40    1
    41    38    41    1
@<TRIPOS>SUBSTRUCTURE
     1 1           1 GROUP             0 ****  ****    0  
@<TRIPOS>MOLECULE
Molecule Name_00001_00331
    41    41     1     0     0
SMALL
NO_CHARGES
****
Generated from the CSD

@<TRIPOS>ATOM
     1 C5      -3.8833   1.9176  -0.2632   C.ar      1 1      0.0000
     2 C4      -3.8363   1.6431   1.0865   C.ar      1 1      0.0000
     3 C3      -3.0532   0.6026   1.5579   C.ar      1 1      0.0000
     4 C8      -2.3068  -0.1757   0.6866   C.ar      1 1      0.0000
     5 C7      -2.3645   0.1110  -0.6686   C.ar      1 1      0.0000
     6 C6      -3.1473   1.1512  -1.1410   C.ar      1 1      0.0000
     7 H4      -4.4143   2.2434   1.7814   H         1 1      0.0000
     8 C9      -1.4558  -1.3117   1.2005   C.3       1 1      0.0000
     9 H7      -1.7892  -0.4869  -1.3678   H         1 1      0.0000
    10 H6      -3.1813   1.3633  -2.2045   H         1 1      0.0000
    11 C10     -0.6776  -2.0255   0.0969   C.3       1 1      0.0000
    12 H9A     -0.7472  -0.9193   1.9403   H         1 1      0.0000
    13 C11      0.4836  -1.2411  -0.4925   C.3       1 1      0.0000
    14 C12      1.6398  -1.1104   0.4928   C.3       1 1      0.0000
    15 H12A     2.0368  -2.1089   0.7140   H         1 1      0.0000
    16 C13      2.7503  -0.2468  -0.0233   C.2       1 1      0.0000
    17 C14      2.5171   1.2339  -0.0561   C.3       1 1      0.0000
    18 H14B     1.4856   1.4208  -0.3794   H         1 1      0.0000
    19 H14A     3.1842   1.6881  -0.7989   H         1 1      0.0000
    20 N        3.8917  -0.7774  -0.4144   N.pl3     1 1      0.0000
    21 HN       3.9982  -1.7817  -0.2721   H         1 1      0.0000
    22 C        5.0624  -0.0617  -0.9006   C.3       1 1      0.0000
    23 H1A      5.9770  -0.5613  -0.5884   H         1 1      0.0000
    24 H1C      5.0586  -0.0101  -1.9874   H         1 1      0.0000
    25 H1B      5.0824   0.9549  -0.5137   H         1 1      0.0000
    26 H10A    -0.2875  -2.9669   0.5031   H         1 1      0.0000
    27 H10B    -1.3744  -2.2731  -0.7134   H         1 1      0.0000
    28 H9B     -2.1013  -2.0382   1.7092   H         1 1      0.0000
    29 H5      -4.4965   2.7328  -0.6329   H         1 1      0.0000
    30 H3      -3.0234   0.3941   2.6223   H         1 1      0.0000
    31 H12B     1.2637  -0.6854   1.4316   H         1 1      0.0000
    32 C15      2.7386   1.9097   1.2844   C.3       1 1      0.0000
    33 H15A     3.7682   1.7251   1.6147   H         1 1      0.0000
    34 H15C     2.0644   1.4655   2.0271   H         1 1      0.0000
    35 OH       0.9452  -1.9077  -1.6707   O.3       1 1      0.0000
    36 OH1      0.2056  -1.9744  -2.3239   H         1 1      0.0000
    37 H22      0.1323  -0.2338  -0.7650   H         1 1      0.0000
    38 C16      2.4973   3.4003   1.2244   C.3       1 1      0.0000
    39 H16C     1.4748   3.6136   0.9198   H         1 1      0.0000
    40 H16A     2.6633   3.8574   2.1977   H         1 1      0.0000
    41 H16B     3.1690   3.8713   0.5098   H         1 1      0.0000
@<TRIPOS>BOND
     1     1     2   ar
     2     1     6   ar
     3     1    29    1
     4     2     3   ar
     5     2     7    1
     6     3     4   ar
     7     3    30    1
     8     4     5   ar
     9     4     8    1
    10     5     6   ar
    11     5     9    1
    12     6    10    1
    13     8    11    1
    14     8    12    1
    15     8    28    1
    16    11    13    1
    17    11    26    1
    18    11    27    1
    19    13    14    1
    20    14    15    1
    21    14    16    1
    22    14    31    1
    23    16    17    1
    24    16    20    2
    25    17    18    1
    26    17    19    1
    27    17    32    1
    28    20    21    1
    29    20    22    1
    30    22    23    1
    31    22    24    1
    32    22    25    1
    33    32    33    1
    34    32    34    1
    35    13    35    1
    36    35    36    1
    37    13    37    1
    38    32    38    1
    39    38    39    1
    40    38    40    1
    41    38    41    1
@<TRIPOS>SUBSTRUCTURE
     1 1           1 GROUP             0 ****  ****    0  
@<TRIPOS>MOLECULE
Molecule Name_00001_00332
    41    41     1     0     0
SMALL
NO_CHARGES
****
Generated from the CSD

@<TRIPOS>ATOM
     1 C5      -3.7525   2.0153   0.6468   C.ar      1 1      0.0000
     2 C4      -3.9188   0.9928   1.5558   C.ar      1 1      0.0000
     3 C3      -3.2197  -0.1931   1.4044   C.ar      1 1      0.0000
     4 C8      -2.3453  -0.3715   0.3434   C.ar      1 1      0.0000
     5 C7      -2.1888   0.6649  -0.5640   C.ar      1 1      0.0000
     6 C6      -2.8874   1.8512  -0.4134   C.ar      1 1      0.0000
     7 H4      -4.5990   1.1172   2.3919   H         1 1      0.0000
     8 C9      -1.5860  -1.6656   0.1769   C.3       1 1      0.0000
     9 H7      -1.5106   0.5452  -1.4024   H         1 1      0.0000
    10 H6      -2.7534   2.6532  -1.1318   H         1 1      0.0000
    11 C10     -0.6436  -1.6580  -1.0252   C.3       1 1      0.0000
    12 H9A     -1.0028  -1.8557   1.0864   H         1 1      0.0000
    13 C11      0.5960  -0.7909  -0.8749   C.3       1 1      0.0000
    14 C12      1.5825  -1.3781   0.1284   C.3       1 1      0.0000
    15 H12A     1.8994  -2.3693  -0.2187   H         1 1      0.0000
    16 C13      2.7945  -0.5190   0.3248   C.2       1 1      0.0000
    17 C14      2.6375   0.7194   1.1552   C.3       1 1      0.0000
    18 H14B     3.5908   0.9314   1.6549   H         1 1      0.0000
    19 H14A     1.8879   0.5385   1.9352   H         1 1      0.0000
    20 N        3.9543  -0.8578  -0.2020   N.pl3     1 1      0.0000
    21 HN       3.9924  -1.7612  -0.6737   H         1 1      0.0000
    22 C        5.2145  -0.1424  -0.0639   C.3       1 1      0.0000
    23 H1A      6.0558  -0.7988  -0.2766   H         1 1      0.0000
    24 H1C      5.2580   0.6981  -0.7534   H         1 1      0.0000
    25 H1B      5.3319   0.2425   0.9468   H         1 1      0.0000
    26 H10A    -0.3224  -2.6890  -1.2184   H         1 1      0.0000
    27 H10B    -1.2040  -1.3114  -1.9022   H         1 1      0.0000
    28 H9B     -2.3036  -2.4874   0.0627   H         1 1      0.0000
    29 H5      -4.2998   2.9446   0.7653   H         1 1      0.0000
    30 H3      -3.3580  -0.9923   2.1250   H         1 1      0.0000
    31 H12B     1.0769  -1.5082   1.0932   H         1 1      0.0000
    32 C15      2.2271   1.9382   0.3497   C.3       1 1      0.0000
    33 H15A     1.2660   1.7388  -0.1402   H         1 1      0.0000
    34 H15C     2.9717   2.1181  -0.4356   H         1 1      0.0000
    35 OH       1.2375  -0.6715  -2.1478   O.3       1 1      0.0000
    36 OH1      0.6100  -0.2688  -2.7975   H         1 1      0.0000
    37 H22      0.2920   0.2101  -0.5315   H         1 1      0.0000
    38 C16      2.0994   3.1774   1.2052   C.3       1 1      0.0000
    39 H16C     3.0460   3.4123   1.6875   H         1 1      0.0000
    40 H16A     1.8045   4.0337   0.6022   H         1 1      0.0000
    41 H16B     1.3500   3.0349   1.9810   H         1 1      0.0000
@<TRIPOS>BOND
     1     1     2   ar
     2     1     6   ar
     3     1    29    1
     4     2     3   ar
     5     2     7    1
     6     3     4   ar
     7     3    30    1
     8     4     5   ar
     9     4     8    1
    10     5     6   ar
    11     5     9    1
    12     6    10    1
    13     8    11    1
    14     8    12    1
    15     8    28    1
    16    11    13    1
    17    11    26    1
    18    11    27    1
    19    13    14    1
    20    14    15    1
    21    14    16    1
    22    14    31    1
    23    16    17    1
    24    16    20    2
    25    17    18    1
    26    17    19    1
    27    17    32    1
    28    20    21    1
    29    20    22    1
    30    22    23    1
    31    22    24    1
    32    22    25    1
    33    32    33    1
    34    32    34    1
    35    13    35    1
    36    35    36    1
    37    13    37    1
    38    32    38    1
    39    38    39    1
    40    38    40    1
    41    38    41    1
@<TRIPOS>SUBSTRUCTURE
     1 1           1 GROUP             0 ****  ****    0  
@<TRIPOS>MOLECULE
Molecule Name_00001_00333
    41    41     1     0     0
SMALL
NO_CHARGES
****
Generated from the CSD

@<TRIPOS>ATOM
     1 C5      -4.3499  -1.4088   0.4230   C.ar      1 1      0.0000
     2 C4      -4.3366  -1.0660  -0.9118   C.ar      1 1      0.0000
     3 C3      -3.4498  -0.1085  -1.3752   C.ar      1 1      0.0000
     4 C8      -2.5650   0.5176  -0.5108   C.ar      1 1      0.0000
     5 C7      -2.5904   0.1638   0.8294   C.ar      1 1      0.0000
     6 C6      -3.4767  -0.7936   1.2938   C.ar      1 1      0.0000
     7 H4      -5.0224  -1.5474  -1.6012   H         1 1      0.0000
     8 C9      -1.6008   1.5637  -1.0158   C.3       1 1      0.0000
     9 H7      -1.9073   0.6429   1.5231   H         1 1      0.0000
    10 H6      -3.4837  -1.0599   2.3456   H         1 1      0.0000
    11 C10     -0.6811   2.1086   0.0752   C.3       1 1      0.0000
    12 H9A     -0.9881   1.1272  -1.8141   H         1 1      0.0000
    13 C11      0.3968   1.1505   0.5563   C.3       1 1      0.0000
    14 C12      1.4743   0.9303  -0.4997   C.3       1 1      0.0000
    15 H12A     2.0198   1.8691  -0.6564   H         1 1      0.0000
    16 C13      2.4490  -0.1436  -0.1224   C.2       1 1      0.0000
    17 C14      3.4985   0.1998   0.8918   C.3       1 1      0.0000
    18 H14B     3.8358  -0.7247   1.3764   H         1 1      0.0000
    19 H14A     3.0565   0.8376   1.6670   H         1 1      0.0000
    20 N        2.3670  -1.3466  -0.6546   N.pl3     1 1      0.0000
    21 HN       1.5685  -1.5198  -1.2650   H         1 1      0.0000
    22 C        3.2177  -2.4896  -0.3564   C.3       1 1      0.0000
    23 H1A      2.7477  -3.4154  -0.6814   H         1 1      0.0000
    24 H1C      4.1758  -2.3997  -0.8642   H         1 1      0.0000
    25 H1B      3.4068  -2.5624   0.7125   H         1 1      0.0000
    26 H10A    -0.1931   3.0143  -0.3054   H         1 1      0.0000
    27 H10B    -1.2974   2.3962   0.9359   H         1 1      0.0000
    28 H9B     -2.1715   2.3943  -1.4492   H         1 1      0.0000
    29 H5      -5.0443  -2.1592   0.7864   H         1 1      0.0000
    30 H3      -3.4475   0.1549  -2.4278   H         1 1      0.0000
    31 H12B     0.9953   0.6603  -1.4489   H         1 1      0.0000
    32 C15      4.7027   0.9073   0.2985   C.3       1 1      0.0000
    33 H15A     4.3722   1.8323  -0.1898   H         1 1      0.0000
    34 H15C     5.1541   0.2668  -0.4694   H         1 1      0.0000
    35 OH       1.0007   1.6847   1.7377   O.3       1 1      0.0000
    36 OH1      0.3104   1.8074   2.4351   H         1 1      0.0000
    37 H22     -0.0683   0.1822   0.7979   H         1 1      0.0000
    38 C16      5.7449   1.2421   1.3404   C.3       1 1      0.0000
    39 H16C     6.1077   0.3391   1.8270   H         1 1      0.0000
    40 H16A     6.5949   1.7477   0.8871   H         1 1      0.0000
    41 H16B     5.3299   1.8957   2.1048   H         1 1      0.0000
@<TRIPOS>BOND
     1     1     2   ar
     2     1     6   ar
     3     1    29    1
     4     2     3   ar
     5     2     7    1
     6     3     4   ar
     7     3    30    1
     8     4     5   ar
     9     4     8    1
    10     5     6   ar
    11     5     9    1
    12     6    10    1
    13     8    11    1
    14     8    12    1
    15     8    28    1
    16    11    13    1
    17    11    26    1
    18    11    27    1
    19    13    14    1
    20    14    15    1
    21    14    16    1
    22    14    31    1
    23    16    17    1
    24    16    20    2
    25    17    18    1
    26    17    19    1
    27    17    32    1
    28    20    21    1
    29    20    22    1
    30    22    23    1
    31    22    24    1
    32    22    25    1
    33    32    33    1
    34    32    34    1
    35    13    35    1
    36    35    36    1
    37    13    37    1
    38    32    38    1
    39    38    39    1
    40    38    40    1
    41    38    41    1
@<TRIPOS>SUBSTRUCTURE
     1 1           1 GROUP             0 ****  ****    0  
@<TRIPOS>MOLECULE
Molecule Name_00001_00334
    41    41     1     0     0
SMALL
NO_CHARGES
****
Generated from the CSD

@<TRIPOS>ATOM
     1 C5      -4.7262  -1.2647  -0.0019   C.ar      1 1      0.0000
     2 C4      -4.7847  -0.2489   0.9276   C.ar      1 1      0.0000
     3 C3      -3.6889   0.5737   1.1289   C.ar      1 1      0.0000
     4 C8      -2.5215   0.3919   0.4035   C.ar      1 1      0.0000
     5 C7      -2.4764  -0.6347  -0.5272   C.ar      1 1      0.0000
     6 C6      -3.5716  -1.4578  -0.7294   C.ar      1 1      0.0000
     7 H4      -5.6914  -0.0932   1.5029   H         1 1      0.0000
     8 C9      -1.3262   1.2866   0.6256   C.3       1 1      0.0000
     9 H7      -1.5718  -0.7952  -1.1044   H         1 1      0.0000
    10 H6      -3.5207  -2.2565  -1.4620   H         1 1      0.0000
    11 C10     -0.1372   0.9319  -0.2652   C.3       1 1      0.0000
    12 H9A     -1.6189   2.3262   0.4329   H         1 1      0.0000
    13 C11      1.0955   1.8026  -0.0826   C.3       1 1      0.0000
    14 C12      2.2325   1.3792  -1.0060   C.3       1 1      0.0000
    15 H12A     3.0215   2.1407  -0.9755   H         1 1      0.0000
    16 C13      2.8206   0.0517  -0.6352   C.2       1 1      0.0000
    17 C14      4.1103   0.0556   0.1292   C.3       1 1      0.0000
    18 H14B     4.7566   0.8448  -0.2746   H         1 1      0.0000
    19 H14A     4.6230  -0.9021  -0.0228   H         1 1      0.0000
    20 N        2.2098  -1.0708  -0.9582   N.pl3     1 1      0.0000
    21 HN       1.2932  -0.9794  -1.3960   H         1 1      0.0000
    22 C        2.6439  -2.4218  -0.6337   C.3       1 1      0.0000
    23 H1A      1.7883  -3.0674  -0.4470   H         1 1      0.0000
    24 H1C      3.2184  -2.8491  -1.4530   H         1 1      0.0000
    25 H1B      3.2703  -2.4235   0.2557   H         1 1      0.0000
    26 H10A     0.1435  -0.1100  -0.0673   H         1 1      0.0000
    27 H10B    -0.4568   0.9999  -1.3124   H         1 1      0.0000
    28 H9B     -1.0188   1.2158   1.6763   H         1 1      0.0000
    29 H5      -5.5846  -1.9092  -0.1602   H         1 1      0.0000
    30 H3      -3.7448   1.3703   1.8634   H         1 1      0.0000
    31 H12B     1.8573   1.3285  -2.0356   H         1 1      0.0000
    32 C15      3.9291   0.2874   1.6178   C.3       1 1      0.0000
    33 H15A     3.2818  -0.4976   2.0280   H         1 1      0.0000
    34 H15C     3.4268   1.2502   1.7736   H         1 1      0.0000
    35 OH       0.7496   3.1627  -0.3586   O.3       1 1      0.0000
    36 OH1      0.0414   3.4568   0.2659   H         1 1      0.0000
    37 H22      1.4365   1.7242   0.9613   H         1 1      0.0000
    38 C16      5.2428   0.2868   2.3648   C.3       1 1      0.0000
    39 H16C     5.8983   1.0715   1.9929   H         1 1      0.0000
    40 H16A     5.0822   0.4547   3.4277   H         1 1      0.0000
    41 H16B     5.7537  -0.6664   2.2456   H         1 1      0.0000
@<TRIPOS>BOND
     1     1     2   ar
     2     1     6   ar
     3     1    29    1
     4     2     3   ar
     5     2     7    1
     6     3     4   ar
     7     3    30    1
     8     4     5   ar
     9     4     8    1
    10     5     6   ar
    11     5     9    1
    12     6    10    1
    13     8    11    1
    14     8    12    1
    15     8    28    1
    16    11    13    1
    17    11    26    1
    18    11    27    1
    19    13    14    1
    20    14    15    1
    21    14    16    1
    22    14    31    1
    23    16    17    1
    24    16    20    2
    25    17    18    1
    26    17    19    1
    27    17    32    1
    28    20    21    1
    29    20    22    1
    30    22    23    1
    31    22    24    1
    32    22    25    1
    33    32    33    1
    34    32    34    1
    35    13    35    1
    36    35    36    1
    37    13    37    1
    38    32    38    1
    39    38    39    1
    40    38    40    1
    41    38    41    1
@<TRIPOS>SUBSTRUCTURE
     1 1           1 GROUP             0 ****  ****    0  
@<TRIPOS>MOLECULE
Molecule Name_00001_00335
    41    41     1     0     0
SMALL
NO_CHARGES
****
Generated from the CSD

@<TRIPOS>ATOM
     1 C5      -4.2769   1.7642  -0.2102   C.ar      1 1      0.0000
     2 C4      -4.5825   0.4454  -0.4687   C.ar      1 1      0.0000
     3 C3      -3.6066  -0.5303  -0.3527   C.ar      1 1      0.0000
     4 C8      -2.3136  -0.2004   0.0236   C.ar      1 1      0.0000
     5 C7      -2.0202   1.1302   0.2793   C.ar      1 1      0.0000
     6 C6      -2.9954   2.1067   0.1637   C.ar      1 1      0.0000
     7 H4      -5.5899   0.1710  -0.7637   H         1 1      0.0000
     8 C9      -1.2493  -1.2639   0.1467   C.3       1 1      0.0000
     9 H7      -1.0141   1.4100   0.5737   H         1 1      0.0000
    10 H6      -2.7500   3.1437   0.3679   H         1 1      0.0000
    11 C10      0.1083  -0.7078   0.5717   C.3       1 1      0.0000
    12 H9A     -1.5752  -2.0103   0.8817   H         1 1      0.0000
    13 C11      1.2184  -1.7370   0.7113   C.3       1 1      0.0000
    14 C12      2.5224  -1.1060   1.1869   C.3       1 1      0.0000
    15 H12A     3.2358  -1.9013   1.4356   H         1 1      0.0000
    16 C13      3.1382  -0.2001   0.1642   C.2       1 1      0.0000
    17 C14      3.2065   1.2624   0.4869   C.3       1 1      0.0000
    18 H14B     4.0225   1.7128  -0.0915   H         1 1      0.0000
    19 H14A     3.4463   1.3867   1.5500   H         1 1      0.0000
    20 N        3.6150  -0.6836  -0.9656   N.pl3     1 1      0.0000
    21 HN       3.6107  -1.6988  -1.0630   H         1 1      0.0000
    22 C        4.2684   0.0689  -2.0266   C.3       1 1      0.0000
    23 H1A      4.8403  -0.5934  -2.6732   H         1 1      0.0000
    24 H1C      3.5343   0.5889  -2.6385   H         1 1      0.0000
    25 H1B      4.9493   0.8095  -1.6126   H         1 1      0.0000
    26 H10A     0.4217   0.0399  -0.1673   H         1 1      0.0000
    27 H10B    -0.0129  -0.1970   1.5349   H         1 1      0.0000
    28 H9B     -1.1404  -1.7721  -0.8193   H         1 1      0.0000
    29 H5      -5.0413   2.5289  -0.3007   H         1 1      0.0000
    30 H3      -3.8569  -1.5657  -0.5590   H         1 1      0.0000
    31 H12B     2.3295  -0.5325   2.1019   H         1 1      0.0000
    32 C15      1.9213   2.0088   0.1806   C.3       1 1      0.0000
    33 H15A     1.1091   1.5911   0.7882   H         1 1      0.0000
    34 H15C     1.6607   1.8589  -0.8744   H         1 1      0.0000
    35 OH       0.8115  -2.7359   1.6507   O.3       1 1      0.0000
    36 OH1      0.0116  -3.2056   1.3078   H         1 1      0.0000
    37 H22      1.3890  -2.2131  -0.2667   H         1 1      0.0000
    38 C16      2.0358   3.4900   0.4575   C.3       1 1      0.0000
    39 H16C     2.8212   3.9362  -0.1490   H         1 1      0.0000
    40 H16A     1.1013   3.9984   0.2294   H         1 1      0.0000
    41 H16B     2.2725   3.6695   1.5042   H         1 1      0.0000
@<TRIPOS>BOND
     1     1     2   ar
     2     1     6   ar
     3     1    29    1
     4     2     3   ar
     5     2     7    1
     6     3     4   ar
     7     3    30    1
     8     4     5   ar
     9     4     8    1
    10     5     6   ar
    11     5     9    1
    12     6    10    1
    13     8    11    1
    14     8    12    1
    15     8    28    1
    16    11    13    1
    17    11    26    1
    18    11    27    1
    19    13    14    1
    20    14    15    1
    21    14    16    1
    22    14    31    1
    23    16    17    1
    24    16    20    2
    25    17    18    1
    26    17    19    1
    27    17    32    1
    28    20    21    1
    29    20    22    1
    30    22    23    1
    31    22    24    1
    32    22    25    1
    33    32    33    1
    34    32    34    1
    35    13    35    1
    36    35    36    1
    37    13    37    1
    38    32    38    1
    39    38    39    1
    40    38    40    1
    41    38    41    1
@<TRIPOS>SUBSTRUCTURE
     1 1           1 GROUP             0 ****  ****    0  
@<TRIPOS>MOLECULE
Molecule Name_00001_00336
    41    41     1     0     0
SMALL
NO_CHARGES
****
Generated from the CSD

@<TRIPOS>ATOM
     1 C5      -4.9358   0.9018   0.0776   C.ar      1 1      0.0000
     2 C4      -3.7426   1.5694   0.2511   C.ar      1 1      0.0000
     3 C3      -2.5555   0.8613   0.3366   C.ar      1 1      0.0000
     4 C8      -2.5459  -0.5223   0.2489   C.ar      1 1      0.0000
     5 C7      -3.7536  -1.1807   0.0757   C.ar      1 1      0.0000
     6 C6      -4.9413  -0.4736  -0.0100   C.ar      1 1      0.0000
     7 H4      -3.7333   2.6521   0.3209   H         1 1      0.0000
     8 C9      -1.2520  -1.2939   0.3454   C.3       1 1      0.0000
     9 H7      -3.7684  -2.2634   0.0062   H         1 1      0.0000
    10 H6      -5.8782  -1.0036  -0.1462   H         1 1      0.0000
    11 C10     -0.0260  -0.3943   0.4889   C.3       1 1      0.0000
    12 H9A     -1.3031  -1.9680   1.2094   H         1 1      0.0000
    13 C11      0.3709   0.3697  -0.7641   C.3       1 1      0.0000
    14 C12      1.6035   1.2373  -0.5345   C.3       1 1      0.0000
    15 H12A     1.4172   1.9075   0.3137   H         1 1      0.0000
    16 C13      2.8384   0.4341  -0.2601   C.2       1 1      0.0000
    17 C14      4.0463   1.1702   0.2367   C.3       1 1      0.0000
    18 H14B     4.1239   2.1231  -0.3011   H         1 1      0.0000
    19 H14A     4.9454   0.5858   0.0062   H         1 1      0.0000
    20 N        2.8463  -0.8723  -0.4351   N.pl3     1 1      0.0000
    21 HN       1.9564  -1.3023  -0.6867   H         1 1      0.0000
    22 C        3.9560  -1.7780  -0.1756   C.3       1 1      0.0000
    23 H1A      3.5938  -2.7375   0.1876   H         1 1      0.0000
    24 H1C      4.5300  -1.9540  -1.0829   H         1 1      0.0000
    25 H1B      4.6266  -1.3630   0.5739   H         1 1      0.0000
    26 H10A    -0.2218   0.3312   1.2881   H         1 1      0.0000
    27 H10B     0.8239  -1.0143   0.7997   H         1 1      0.0000
    28 H9B     -1.1380  -1.9119  -0.5538   H         1 1      0.0000
    29 H5      -5.8660   1.4562   0.0103   H         1 1      0.0000
    30 H3      -1.6214   1.3960   0.4738   H         1 1      0.0000
    31 H12B     1.7726   1.8606  -1.4213   H         1 1      0.0000
    32 C15      4.0103   1.4527   1.7273   C.3       1 1      0.0000
    33 H15A     3.9307   0.5036   2.2715   H         1 1      0.0000
    34 H15C     3.1180   2.0471   1.9594   H         1 1      0.0000
    35 OH       0.6442  -0.5647  -1.8119   O.3       1 1      0.0000
    36 OH1     -0.1880  -1.0398  -2.0563   H         1 1      0.0000
    37 H22     -0.4673   1.0152  -1.0691   H         1 1      0.0000
    38 C16      5.2380   2.1948   2.2024   C.3       1 1      0.0000
    39 H16C     5.3307   3.1522   1.6941   H         1 1      0.0000
    40 H16A     5.1847   2.3831   3.2727   H         1 1      0.0000
    41 H16B     6.1385   1.6173   2.0043   H         1 1      0.0000
@<TRIPOS>BOND
     1     1     2   ar
     2     1     6   ar
     3     1    29    1
     4     2     3   ar
     5     2     7    1
     6     3     4   ar
     7     3    30    1
     8     4     5   ar
     9     4     8    1
    10     5     6   ar
    11     5     9    1
    12     6    10    1
    13     8    11    1
    14     8    12    1
    15     8    28    1
    16    11    13    1
    17    11    26    1
    18    11    27    1
    19    13    14    1
    20    14    15    1
    21    14    16    1
    22    14    31    1
    23    16    17    1
    24    16    20    2
    25    17    18    1
    26    17    19    1
    27    17    32    1
    28    20    21    1
    29    20    22    1
    30    22    23    1
    31    22    24    1
    32    22    25    1
    33    32    33    1
    34    32    34    1
    35    13    35    1
    36    35    36    1
    37    13    37    1
    38    32    38    1
    39    38    39    1
    40    38    40    1
    41    38    41    1
@<TRIPOS>SUBSTRUCTURE
     1 1           1 GROUP             0 ****  ****    0  
@<TRIPOS>MOLECULE
Molecule Name_00001_00337
    41    41     1     0     0
SMALL
NO_CHARGES
****
Generated from the CSD

@<TRIPOS>ATOM
     1 C5      -5.0442   0.8342   0.2386   C.ar      1 1      0.0000
     2 C4      -3.8785   1.2913   0.8144   C.ar      1 1      0.0000
     3 C3      -2.6974   0.5879   0.6465   C.ar      1 1      0.0000
     4 C8      -2.6664  -0.5804  -0.0994   C.ar      1 1      0.0000
     5 C7      -3.8467  -1.0291  -0.6718   C.ar      1 1      0.0000
     6 C6      -5.0283  -0.3264  -0.5045   C.ar      1 1      0.0000
     7 H4      -3.8861   2.2043   1.4006   H         1 1      0.0000
     8 C9      -1.3794  -1.3486  -0.2795   C.3       1 1      0.0000
     9 H7      -3.8447  -1.9420  -1.2581   H         1 1      0.0000
    10 H6      -5.9436  -0.6904  -0.9594   H         1 1      0.0000
    11 C10     -0.1805  -0.6751   0.3854   C.3       1 1      0.0000
    12 H9A     -1.5030  -2.3539   0.1418   H         1 1      0.0000
    13 C11      0.3221   0.5845  -0.3017   C.3       1 1      0.0000
    14 C12      1.5201   1.1880   0.4231   C.3       1 1      0.0000
    15 H12A     1.2504   1.3711   1.4706   H         1 1      0.0000
    16 C13      2.7323   0.3083   0.3777   C.2       1 1      0.0000
    17 C14      3.8825   0.6686   1.2694   C.3       1 1      0.0000
    18 H14B     4.4727  -0.2351   1.4652   H         1 1      0.0000
    19 H14A     3.4953   1.0260   2.2314   H         1 1      0.0000
    20 N        2.7689  -0.7501  -0.4071   N.pl3     1 1      0.0000
    21 HN       1.9100  -0.9726  -0.9100   H         1 1      0.0000
    22 C        3.8588  -1.7077  -0.5257   C.3       1 1      0.0000
    23 H1A      3.5151  -2.6269  -0.9956   H         1 1      0.0000
    24 H1C      4.6662  -1.2996  -1.1301   H         1 1      0.0000
    25 H1B      4.2621  -1.9578   0.4533   H         1 1      0.0000
    26 H10A    -0.4558  -0.4197   1.4161   H         1 1      0.0000
    27 H10B     0.6433  -1.3982   0.4277   H         1 1      0.0000
    28 H9B     -1.1776  -1.4586  -1.3521   H         1 1      0.0000
    29 H5      -5.9697   1.3851   0.3697   H         1 1      0.0000
    30 H3      -1.7851   0.9557   1.1043   H         1 1      0.0000
    31 H12B     1.7637   2.1557  -0.0327   H         1 1      0.0000
    32 C15      4.7943   1.7288   0.6800   C.3       1 1      0.0000
    33 H15A     4.2097   2.6351   0.4797   H         1 1      0.0000
    34 H15C     5.1924   1.3694  -0.2770   H         1 1      0.0000
    35 OH       0.6994   0.2637  -1.6435   O.3       1 1      0.0000
    36 OH1     -0.1084   0.0455  -2.1707   H         1 1      0.0000
    37 H22     -0.4907   1.3267  -0.3256   H         1 1      0.0000
    38 C16      5.9445   2.0737   1.5975   C.3       1 1      0.0000
    39 H16C     6.5557   1.1959   1.7965   H         1 1      0.0000
    40 H16A     6.5800   2.8348   1.1498   H         1 1      0.0000
    41 H16B     5.5783   2.4544   2.5487   H         1 1      0.0000
@<TRIPOS>BOND
     1     1     2   ar
     2     1     6   ar
     3     1    29    1
     4     2     3   ar
     5     2     7    1
     6     3     4   ar
     7     3    30    1
     8     4     5   ar
     9     4     8    1
    10     5     6   ar
    11     5     9    1
    12     6    10    1
    13     8    11    1
    14     8    12    1
    15     8    28    1
    16    11    13    1
    17    11    26    1
    18    11    27    1
    19    13    14    1
    20    14    15    1
    21    14    16    1
    22    14    31    1
    23    16    17    1
    24    16    20    2
    25    17    18    1
    26    17    19    1
    27    17    32    1
    28    20    21    1
    29    20    22    1
    30    22    23    1
    31    22    24    1
    32    22    25    1
    33    32    33    1
    34    32    34    1
    35    13    35    1
    36    35    36    1
    37    13    37    1
    38    32    38    1
    39    38    39    1
    40    38    40    1
    41    38    41    1
@<TRIPOS>SUBSTRUCTURE
     1 1           1 GROUP             0 ****  ****    0  
@<TRIPOS>MOLECULE
Molecule Name_00001_00338
    41    41     1     0     0
SMALL
NO_CHARGES
****
Generated from the CSD

@<TRIPOS>ATOM
     1 C5      -4.5090   0.1074  -1.2362   C.ar      1 1      0.0000
     2 C4      -4.6398  -0.5507  -0.0323   C.ar      1 1      0.0000
     3 C3      -3.7116  -0.3483   0.9754   C.ar      1 1      0.0000
     4 C8      -2.6419   0.5146   0.7929   C.ar      1 1      0.0000
     5 C7      -2.5222   1.1689  -0.4235   C.ar      1 1      0.0000
     6 C6      -3.4499   0.9672  -1.4318   C.ar      1 1      0.0000
     7 H4      -5.4718  -1.2288   0.1263   H         1 1      0.0000
     8 C9      -1.6286   0.7323   1.8905   C.3       1 1      0.0000
     9 H7      -1.6915   1.8473  -0.5875   H         1 1      0.0000
    10 H6      -3.3425   1.4873  -2.3780   H         1 1      0.0000
    11 C10     -0.4930  -0.2890   1.8701   C.3       1 1      0.0000
    12 H9A     -1.2049   1.7391   1.7892   H         1 1      0.0000
    13 C11      0.4705  -0.1678   0.7005   C.3       1 1      0.0000
    14 C12      1.8875  -0.5778   1.0863   C.3       1 1      0.0000
    15 H12A     1.8903  -1.6386   1.3656   H         1 1      0.0000
    16 C13      2.8776  -0.3609  -0.0174   C.2       1 1      0.0000
    17 C14      3.2891   1.0507  -0.3102   C.3       1 1      0.0000
    18 H14B     2.4064   1.6977  -0.2344   H         1 1      0.0000
    19 H14A     3.6576   1.1129  -1.3414   H         1 1      0.0000
    20 N        3.3754  -1.3810  -0.6874   N.pl3     1 1      0.0000
    21 HN       3.1110  -2.3107  -0.3620   H         1 1      0.0000
    22 C        4.3656  -1.3220  -1.7528   C.3       1 1      0.0000
    23 H1A      5.0226  -2.1885  -1.7170   H         1 1      0.0000
    24 H1C      3.8824  -1.3033  -2.7274   H         1 1      0.0000
    25 H1B      4.9786  -0.4279  -1.6618   H         1 1      0.0000
    26 H10A     0.0790  -0.1877   2.8007   H         1 1      0.0000
    27 H10B    -0.9319  -1.2943   1.8541   H         1 1      0.0000
    28 H9B     -2.1379   0.6806   2.8607   H         1 1      0.0000
    29 H5      -5.2361  -0.0506  -2.0258   H         1 1      0.0000
    30 H3      -3.8230  -0.8716   1.9193   H         1 1      0.0000
    31 H12B     2.2002  -0.0005   1.9652   H         1 1      0.0000
    32 C15      4.3601   1.5744   0.6287   C.3       1 1      0.0000
    33 H15A     5.2454   0.9305   0.5594   H         1 1      0.0000
    34 H15C     3.9901   1.5244   1.6603   H         1 1      0.0000
    35 OH       0.0148  -1.0044  -0.3664   O.3       1 1      0.0000
    36 OH1     -0.9617  -0.8950  -0.4781   H         1 1      0.0000
    37 H22      0.4835   0.8776   0.3556   H         1 1      0.0000
    38 C16      4.7568   2.9980   0.3127   C.3       1 1      0.0000
    39 H16C     3.9007   3.6643   0.3951   H         1 1      0.0000
    40 H16A     5.5246   3.3461   1.0004   H         1 1      0.0000
    41 H16B     5.1488   3.0734  -0.6994   H         1 1      0.0000
@<TRIPOS>BOND
     1     1     2   ar
     2     1     6   ar
     3     1    29    1
     4     2     3   ar
     5     2     7    1
     6     3     4   ar
     7     3    30    1
     8     4     5   ar
     9     4     8    1
    10     5     6   ar
    11     5     9    1
    12     6    10    1
    13     8    11    1
    14     8    12    1
    15     8    28    1
    16    11    13    1
    17    11    26    1
    18    11    27    1
    19    13    14    1
    20    14    15    1
    21    14    16    1
    22    14    31    1
    23    16    17    1
    24    16    20    2
    25    17    18    1
    26    17    19    1
    27    17    32    1
    28    20    21    1
    29    20    22    1
    30    22    23    1
    31    22    24    1
    32    22    25    1
    33    32    33    1
    34    32    34    1
    35    13    35    1
    36    35    36    1
    37    13    37    1
    38    32    38    1
    39    38    39    1
    40    38    40    1
    41    38    41    1
@<TRIPOS>SUBSTRUCTURE
     1 1           1 GROUP             0 ****  ****    0  
@<TRIPOS>MOLECULE
Molecule Name_00001_00339
    41    41     1     0     0
SMALL
NO_CHARGES
****
Generated from the CSD

@<TRIPOS>ATOM
     1 C5      -4.1310   1.5856  -0.5736   C.ar      1 1      0.0000
     2 C4      -4.3822   0.2390  -0.7248   C.ar      1 1      0.0000
     3 C3      -3.5704  -0.6943  -0.1019   C.ar      1 1      0.0000
     4 C8      -2.4982  -0.2935   0.6802   C.ar      1 1      0.0000
     5 C7      -2.2565   1.0643   0.8225   C.ar      1 1      0.0000
     6 C6      -3.0677   1.9983   0.2000   C.ar      1 1      0.0000
     7 H4      -5.2179  -0.0908  -1.3332   H         1 1      0.0000
     8 C9      -1.6116  -1.3111   1.3563   C.3       1 1      0.0000
     9 H7      -1.4215   1.3992   1.4290   H         1 1      0.0000
    10 H6      -2.8658   3.0574   0.3217   H         1 1      0.0000
    11 C10     -0.4671  -1.7946   0.4678   C.3       1 1      0.0000
    12 H9A     -1.1927  -0.8683   2.2684   H         1 1      0.0000
    13 C11      0.6085  -0.7616   0.1723   C.3       1 1      0.0000
    14 C12      1.9770  -1.4052  -0.0216   C.3       1 1      0.0000
    15 H12A     1.9294  -2.1003  -0.8690   H         1 1      0.0000
    16 C13      3.0620  -0.4026  -0.2729   C.2       1 1      0.0000
    17 C14      3.5625   0.3841   0.9011   C.3       1 1      0.0000
    18 H14B     4.6181   0.6320   0.7346   H         1 1      0.0000
    19 H14A     3.5068  -0.2380   1.8028   H         1 1      0.0000
    20 N        3.5629  -0.2390  -1.4811   N.pl3     1 1      0.0000
    21 HN       3.2292  -0.8790  -2.2017   H         1 1      0.0000
    22 C        4.6374   0.6662  -1.8620   C.3       1 1      0.0000
    23 H1A      4.4398   1.1114  -2.8349   H         1 1      0.0000
    24 H1C      4.7395   1.4701  -1.1361   H         1 1      0.0000
    25 H1B      5.5867   0.1378  -1.9175   H         1 1      0.0000
    26 H10A     0.0064  -2.6568   0.9534   H         1 1      0.0000
    27 H10B    -0.8894  -2.1366  -0.4852   H         1 1      0.0000
    28 H9B     -2.2214  -2.1732   1.6534   H         1 1      0.0000
    29 H5      -4.7669   2.3171  -1.0612   H         1 1      0.0000
    30 H3      -3.7761  -1.7522  -0.2276   H         1 1      0.0000
    31 H12B     2.2288  -1.9871   0.8736   H         1 1      0.0000
    32 C15      2.7912   1.6690   1.1398   C.3       1 1      0.0000
    33 H15A     1.7370   1.4270   1.3230   H         1 1      0.0000
    34 H15C     2.8396   2.2907   0.2373   H         1 1      0.0000
    35 OH       0.2541  -0.0475  -1.0153   O.3       1 1      0.0000
    36 OH1     -0.7124  -0.1597  -1.1923   H         1 1      0.0000
    37 H22      0.6639  -0.0533   1.0134   H         1 1      0.0000
    38 C16      3.3303   2.4546   2.3127   C.3       1 1      0.0000
    39 H16C     4.3706   2.7278   2.1485   H         1 1      0.0000
    40 H16A     2.7590   3.3688   2.4599   H         1 1      0.0000
    41 H16B     3.2741   1.8688   3.2278   H         1 1      0.0000
@<TRIPOS>BOND
     1     1     2   ar
     2     1     6   ar
     3     1    29    1
     4     2     3   ar
     5     2     7    1
     6     3     4   ar
     7     3    30    1
     8     4     5   ar
     9     4     8    1
    10     5     6   ar
    11     5     9    1
    12     6    10    1
    13     8    11    1
    14     8    12    1
    15     8    28    1
    16    11    13    1
    17    11    26    1
    18    11    27    1
    19    13    14    1
    20    14    15    1
    21    14    16    1
    22    14    31    1
    23    16    17    1
    24    16    20    2
    25    17    18    1
    26    17    19    1
    27    17    32    1
    28    20    21    1
    29    20    22    1
    30    22    23    1
    31    22    24    1
    32    22    25    1
    33    32    33    1
    34    32    34    1
    35    13    35    1
    36    35    36    1
    37    13    37    1
    38    32    38    1
    39    38    39    1
    40    38    40    1
    41    38    41    1
@<TRIPOS>SUBSTRUCTURE
     1 1           1 GROUP             0 ****  ****    0  
@<TRIPOS>MOLECULE
Molecule Name_00001_00340
    41    41     1     0     0
SMALL
NO_CHARGES
****
Generated from the CSD

@<TRIPOS>ATOM
     1 C5      -4.2324   1.7363   0.0427   C.ar      1 1      0.0000
     2 C4      -4.3016   0.4130  -0.3361   C.ar      1 1      0.0000
     3 C3      -3.2104  -0.4203  -0.1550   C.ar      1 1      0.0000
     4 C8      -2.0370   0.0581   0.4076   C.ar      1 1      0.0000
     5 C7      -1.9812   1.3916   0.7828   C.ar      1 1      0.0000
     6 C6      -3.0718   2.2258   0.6020   C.ar      1 1      0.0000
     7 H4      -5.2130   0.0232  -0.7772   H         1 1      0.0000
     8 C9      -0.8467  -0.8497   0.6018   C.3       1 1      0.0000
     9 H7      -1.0718   1.7866   1.2234   H         1 1      0.0000
    10 H6      -3.0125   3.2669   0.9015   H         1 1      0.0000
    11 C10      0.0341  -0.9587  -0.6413   C.3       1 1      0.0000
    12 H9A     -0.2424  -0.4710   1.4354   H         1 1      0.0000
    13 C11      1.2159  -1.9074  -0.5204   C.3       1 1      0.0000
    14 C12      2.1886  -1.4681   0.5685   C.3       1 1      0.0000
    15 H12A     2.8767  -2.2936   0.7887   H         1 1      0.0000
    16 C13      2.9848  -0.2580   0.1848   C.2       1 1      0.0000
    17 C14      2.7614   0.9963   0.9752   C.3       1 1      0.0000
    18 H14B     3.6645   1.6161   0.9147   H         1 1      0.0000
    19 H14A     2.6085   0.7362   2.0297   H         1 1      0.0000
    20 N        3.8590  -0.3099  -0.8003   N.pl3     1 1      0.0000
    21 HN       4.0134  -1.2252  -1.2228   H         1 1      0.0000
    22 C        4.7221   0.7704  -1.2551   C.3       1 1      0.0000
    23 H1A      5.5675   0.3782  -1.8167   H         1 1      0.0000
    24 H1C      4.1752   1.4549  -1.9002   H         1 1      0.0000
    25 H1B      5.1094   1.3373  -0.4113   H         1 1      0.0000
    26 H10A    -0.5911  -1.2910  -1.4792   H         1 1      0.0000
    27 H10B     0.4162   0.0407  -0.8836   H         1 1      0.0000
    28 H9B     -1.2031  -1.8504   0.8757   H         1 1      0.0000
    29 H5      -5.0872   2.3894  -0.0988   H         1 1      0.0000
    30 H3      -3.2746  -1.4604  -0.4570   H         1 1      0.0000
    31 H12B     1.6256  -1.2496   1.4843   H         1 1      0.0000
    32 C15      1.5765   1.8116   0.4914   C.3       1 1      0.0000
    33 H15A     0.6633   1.2117   0.5885   H         1 1      0.0000
    34 H15C     1.7111   2.0461  -0.5718   H         1 1      0.0000
    35 OH       0.7313  -3.2179  -0.2149   O.3       1 1      0.0000
    36 OH1      0.1179  -3.5185  -0.9301   H         1 1      0.0000
    37 H22      1.7491  -1.9378  -1.4832   H         1 1      0.0000
    38 C16      1.4086   3.0985   1.2657   C.3       1 1      0.0000
    39 H16C     2.2930   3.7248   1.1693   H         1 1      0.0000
    40 H16A     0.5531   3.6611   0.8978   H         1 1      0.0000
    41 H16B     1.2511   2.8948   2.3228   H         1 1      0.0000
@<TRIPOS>BOND
     1     1     2   ar
     2     1     6   ar
     3     1    29    1
     4     2     3   ar
     5     2     7    1
     6     3     4   ar
     7     3    30    1
     8     4     5   ar
     9     4     8    1
    10     5     6   ar
    11     5     9    1
    12     6    10    1
    13     8    11    1
    14     8    12    1
    15     8    28    1
    16    11    13    1
    17    11    26    1
    18    11    27    1
    19    13    14    1
    20    14    15    1
    21    14    16    1
    22    14    31    1
    23    16    17    1
    24    16    20    2
    25    17    18    1
    26    17    19    1
    27    17    32    1
    28    20    21    1
    29    20    22    1
    30    22    23    1
    31    22    24    1
    32    22    25    1
    33    32    33    1
    34    32    34    1
    35    13    35    1
    36    35    36    1
    37    13    37    1
    38    32    38    1
    39    38    39    1
    40    38    40    1
    41    38    41    1
@<TRIPOS>SUBSTRUCTURE
     1 1           1 GROUP             0 ****  ****    0  
@<TRIPOS>MOLECULE
Molecule Name_00001_00341
    41    41     1     0     0
SMALL
NO_CHARGES
****
Generated from the CSD

@<TRIPOS>ATOM
     1 C5      -4.6431   0.7590  -0.8359   C.ar      1 1      0.0000
     2 C4      -3.7879   0.3387  -1.8316   C.ar      1 1      0.0000
     3 C3      -2.5049  -0.0770  -1.5171   C.ar      1 1      0.0000
     4 C8      -2.0609  -0.0787  -0.2037   C.ar      1 1      0.0000
     5 C7      -2.9313   0.3477   0.7875   C.ar      1 1      0.0000
     6 C6      -4.2146   0.7636   0.4740   C.ar      1 1      0.0000
     7 H4      -4.1207   0.3337  -2.8643   H         1 1      0.0000
     8 C9      -0.6612  -0.5289   0.1384   C.3       1 1      0.0000
     9 H7      -2.6032   0.3556   1.8217   H         1 1      0.0000
    10 H6      -4.8841   1.0939   1.2614   H         1 1      0.0000
    11 C10     -0.3574  -0.4606   1.6337   C.3       1 1      0.0000
    12 H9A     -0.5249  -1.5612  -0.2067   H         1 1      0.0000
    13 C11      1.0196  -0.9590   2.0416   C.3       1 1      0.0000
    14 C12      2.1172   0.0295   1.6633   C.3       1 1      0.0000
    15 H12A     3.0449  -0.2511   2.1771   H         1 1      0.0000
    16 C13      2.3724   0.0800   0.1876   C.2       1 1      0.0000
    17 C14      2.7689   1.4005  -0.4012   C.3       1 1      0.0000
    18 H14B     2.1779   2.1911   0.0774   H         1 1      0.0000
    19 H14A     2.5255   1.4067  -1.4707   H         1 1      0.0000
    20 N        2.2670  -1.0054  -0.5529   N.pl3     1 1      0.0000
    21 HN       2.0830  -1.8774  -0.0572   H         1 1      0.0000
    22 C        2.5191  -1.1106  -1.9828   C.3       1 1      0.0000
    23 H1A      2.9504  -2.0790  -2.2280   H         1 1      0.0000
    24 H1C      1.5951  -0.9989  -2.5462   H         1 1      0.0000
    25 H1B      3.2113  -0.3383  -2.3112   H         1 1      0.0000
    26 H10A    -0.4575   0.5823   1.9590   H         1 1      0.0000
    27 H10B    -1.1115  -1.0521   2.1675   H         1 1      0.0000
    28 H9B      0.0572   0.1009  -0.4009   H         1 1      0.0000
    29 H5      -5.6484   1.0845  -1.0819   H         1 1      0.0000
    30 H3      -1.8391  -0.4054  -2.3083   H         1 1      0.0000
    31 H12B     1.8327   1.0303   2.0110   H         1 1      0.0000
    32 C15      4.2422   1.7204  -0.2287   C.3       1 1      0.0000
    33 H15A     4.8395   0.9323  -0.7036   H         1 1      0.0000
    34 H15C     4.4864   1.7264   0.8408   H         1 1      0.0000
    35 OH       1.0403  -1.1630   3.4572   O.3       1 1      0.0000
    36 OH1      0.3460  -1.8217   3.7063   H         1 1      0.0000
    37 H22      1.2155  -1.9185   1.5384   H         1 1      0.0000
    38 C16      4.6158   3.0555  -0.8302   C.3       1 1      0.0000
    39 H16C     4.0532   3.8604  -0.3618   H         1 1      0.0000
    40 H16A     5.6758   3.2578  -0.6919   H         1 1      0.0000
    41 H16B     4.4043   3.0704  -1.8973   H         1 1      0.0000
@<TRIPOS>BOND
     1     1     2   ar
     2     1     6   ar
     3     1    29    1
     4     2     3   ar
     5     2     7    1
     6     3     4   ar
     7     3    30    1
     8     4     5   ar
     9     4     8    1
    10     5     6   ar
    11     5     9    1
    12     6    10    1
    13     8    11    1
    14     8    12    1
    15     8    28    1
    16    11    13    1
    17    11    26    1
    18    11    27    1
    19    13    14    1
    20    14    15    1
    21    14    16    1
    22    14    31    1
    23    16    17    1
    24    16    20    2
    25    17    18    1
    26    17    19    1
    27    17    32    1
    28    20    21    1
    29    20    22    1
    30    22    23    1
    31    22    24    1
    32    22    25    1
    33    32    33    1
    34    32    34    1
    35    13    35    1
    36    35    36    1
    37    13    37    1
    38    32    38    1
    39    38    39    1
    40    38    40    1
    41    38    41    1
@<TRIPOS>SUBSTRUCTURE
     1 1           1 GROUP             0 ****  ****    0  
@<TRIPOS>MOLECULE
Molecule Name_00001_00342
    41    41     1     0     0
SMALL
NO_CHARGES
****
Generated from the CSD

@<TRIPOS>ATOM
     1 C5      -4.2957   1.1213  -0.6044   C.ar      1 1      0.0000
     2 C4      -3.4818   0.7989  -1.6688   C.ar      1 1      0.0000
     3 C3      -2.2282   0.2542  -1.4458   C.ar      1 1      0.0000
     4 C8      -1.7728   0.0243  -0.1567   C.ar      1 1      0.0000
     5 C7      -2.6016   0.3546   0.9044   C.ar      1 1      0.0000
     6 C6      -3.8554   0.8993   0.6825   C.ar      1 1      0.0000
     7 H4      -3.8240   0.9722  -2.6838   H         1 1      0.0000
     8 C9      -0.4049  -0.5664   0.0859   C.3       1 1      0.0000
     9 H7      -2.2638   0.1842   1.9213   H         1 1      0.0000
    10 H6      -4.4925   1.1518   1.5237   H         1 1      0.0000
    11 C10     -0.0828  -0.7452   1.5683   C.3       1 1      0.0000
    12 H9A     -0.3448  -1.5418  -0.4125   H         1 1      0.0000
    13 C11      1.2597  -1.3919   1.8692   C.3       1 1      0.0000
    14 C12      2.4202  -0.4346   1.6213   C.3       1 1      0.0000
    15 H12A     3.3309  -0.8518   2.0686   H         1 1      0.0000
    16 C13      2.6642  -0.1797   0.1649   C.2       1 1      0.0000
    17 C14      3.1469   1.1845  -0.2273   C.3       1 1      0.0000
    18 H14B     3.6813   1.1078  -1.1823   H         1 1      0.0000
    19 H14A     3.8608   1.5446   0.5235   H         1 1      0.0000
    20 N        2.4757  -1.1312  -0.7275   N.pl3     1 1      0.0000
    21 HN       2.2357  -2.0535  -0.3643   H         1 1      0.0000
    22 C        2.7061  -1.0367  -2.1617   C.3       1 1      0.0000
    23 H1A      2.8032  -2.0265  -2.6028   H         1 1      0.0000
    24 H1C      1.8793  -0.5270  -2.6520   H         1 1      0.0000
    25 H1B      3.6178  -0.4813  -2.3711   H         1 1      0.0000
    26 H10A    -0.1063   0.2411   2.0480   H         1 1      0.0000
    27 H10B    -0.8714  -1.3578   2.0225   H         1 1      0.0000
    28 H9B      0.3506   0.0871  -0.3672   H         1 1      0.0000
    29 H5      -5.2780   1.5478  -0.7787   H         1 1      0.0000
    30 H3      -1.5947   0.0043  -2.2905   H         1 1      0.0000
    31 H12B     2.2101   0.5194   2.1205   H         1 1      0.0000
    32 C15      2.0298   2.2011  -0.3735   C.3       1 1      0.0000
    33 H15A     1.4897   2.2814   0.5779   H         1 1      0.0000
    34 H15C     1.3201   1.8493  -1.1323   H         1 1      0.0000
    35 OH       1.2796  -1.8078   3.2376   O.3       1 1      0.0000
    36 OH1      0.5432  -2.4478   3.3991   H         1 1      0.0000
    37 H22      1.3828  -2.2756   1.2242   H         1 1      0.0000
    38 C16      2.5423   3.5667  -0.7690   C.3       1 1      0.0000
    39 H16C     3.0649   3.5213  -1.7222   H         1 1      0.0000
    40 H16A     1.7210   4.2736  -0.8661   H         1 1      0.0000
    41 H16B     3.2334   3.9506  -0.0216   H         1 1      0.0000
@<TRIPOS>BOND
     1     1     2   ar
     2     1     6   ar
     3     1    29    1
     4     2     3   ar
     5     2     7    1
     6     3     4   ar
     7     3    30    1
     8     4     5   ar
     9     4     8    1
    10     5     6   ar
    11     5     9    1
    12     6    10    1
    13     8    11    1
    14     8    12    1
    15     8    28    1
    16    11    13    1
    17    11    26    1
    18    11    27    1
    19    13    14    1
    20    14    15    1
    21    14    16    1
    22    14    31    1
    23    16    17    1
    24    16    20    2
    25    17    18    1
    26    17    19    1
    27    17    32    1
    28    20    21    1
    29    20    22    1
    30    22    23    1
    31    22    24    1
    32    22    25    1
    33    32    33    1
    34    32    34    1
    35    13    35    1
    36    35    36    1
    37    13    37    1
    38    32    38    1
    39    38    39    1
    40    38    40    1
    41    38    41    1
@<TRIPOS>SUBSTRUCTURE
     1 1           1 GROUP             0 ****  ****    0  
@<TRIPOS>MOLECULE
Molecule Name_00001_00343
    41    41     1     0     0
SMALL
NO_CHARGES
****
Generated from the CSD

@<TRIPOS>ATOM
     1 C5      -4.8411   0.4758  -1.2181   C.ar      1 1      0.0000
     2 C4      -4.2182   1.2995  -0.3055   C.ar      1 1      0.0000
     3 C3      -3.0862   0.8656   0.3640   C.ar      1 1      0.0000
     4 C8      -2.5622  -0.3964   0.1293   C.ar      1 1      0.0000
     5 C7      -3.1998  -1.2148  -0.7904   C.ar      1 1      0.0000
     6 C6      -4.3318  -0.7817  -1.4604   C.ar      1 1      0.0000
     7 H4      -4.6155   2.2903  -0.1111   H         1 1      0.0000
     8 C9      -1.3302  -0.8702   0.8617   C.3       1 1      0.0000
     9 H7      -2.8070  -2.2067  -0.9877   H         1 1      0.0000
    10 H6      -4.8190  -1.4340  -2.1777   H         1 1      0.0000
    11 C10     -0.3410   0.2542   1.1620   C.3       1 1      0.0000
    12 H9A     -1.6353  -1.3387   1.8055   H         1 1      0.0000
    13 C11      0.9277  -0.1707   1.8838   C.3       1 1      0.0000
    14 C12      2.1167   0.7066   1.5079   C.3       1 1      0.0000
    15 H12A     2.9491   0.4937   2.1899   H         1 1      0.0000
    16 C13      2.5748   0.4937   0.0971   C.2       1 1      0.0000
    17 C14      3.7362   1.3107  -0.3840   C.3       1 1      0.0000
    18 H14B     3.6365   2.3300   0.0090   H         1 1      0.0000
    19 H14A     3.7048   1.3734  -1.4786   H         1 1      0.0000
    20 N        1.9835  -0.3937  -0.6777   N.pl3     1 1      0.0000
    21 HN       1.2633  -0.9693  -0.2416   H         1 1      0.0000
    22 C        2.3434  -0.7295  -2.0476   C.3       1 1      0.0000
    23 H1A      2.1775  -1.7871  -2.2418   H         1 1      0.0000
    24 H1C      1.7457  -0.1576  -2.7542   H         1 1      0.0000
    25 H1B      3.3922  -0.5106  -2.2366   H         1 1      0.0000
    26 H10A    -0.0569   0.7264   0.2135   H         1 1      0.0000
    27 H10B    -0.8504   1.0093   1.7732   H         1 1      0.0000
    28 H9B     -0.8283  -1.6351   0.2563   H         1 1      0.0000
    29 H5      -5.7278   0.8155  -1.7430   H         1 1      0.0000
    30 H3      -2.6034   1.5213   1.0810   H         1 1      0.0000
    31 H12B     1.8396   1.7600   1.6382   H         1 1      0.0000
    32 C15      5.0827   0.7538   0.0397   C.3       1 1      0.0000
    33 H15A     5.1883  -0.2667  -0.3486   H         1 1      0.0000
    34 H15C     5.1217   0.7006   1.1347   H         1 1      0.0000
    35 OH       0.7108  -0.0860   3.2951   O.3       1 1      0.0000
    36 OH1     -0.0446  -0.6717   3.5490   H         1 1      0.0000
    37 H22      1.1570  -1.2143   1.6184   H         1 1      0.0000
    38 C16      6.2357   1.5947  -0.4574   C.3       1 1      0.0000
    39 H16C     6.1688   2.6090  -0.0694   H         1 1      0.0000
    40 H16A     7.1865   1.1722  -0.1393   H         1 1      0.0000
    41 H16B     6.2347   1.6469  -1.5441   H         1 1      0.0000
@<TRIPOS>BOND
     1     1     2   ar
     2     1     6   ar
     3     1    29    1
     4     2     3   ar
     5     2     7    1
     6     3     4   ar
     7     3    30    1
     8     4     5   ar
     9     4     8    1
    10     5     6   ar
    11     5     9    1
    12     6    10    1
    13     8    11    1
    14     8    12    1
    15     8    28    1
    16    11    13    1
    17    11    26    1
    18    11    27    1
    19    13    14    1
    20    14    15    1
    21    14    16    1
    22    14    31    1
    23    16    17    1
    24    16    20    2
    25    17    18    1
    26    17    19    1
    27    17    32    1
    28    20    21    1
    29    20    22    1
    30    22    23    1
    31    22    24    1
    32    22    25    1
    33    32    33    1
    34    32    34    1
    35    13    35    1
    36    35    36    1
    37    13    37    1
    38    32    38    1
    39    38    39    1
    40    38    40    1
    41    38    41    1
@<TRIPOS>SUBSTRUCTURE
     1 1           1 GROUP             0 ****  ****    0  
@<TRIPOS>MOLECULE
Molecule Name_00001_00344
    41    41     1     0     0
SMALL
NO_CHARGES
****
Generated from the CSD

@<TRIPOS>ATOM
     1 C5      -4.5980   1.1511  -0.8637   C.ar      1 1      0.0000
     2 C4      -3.9035   1.5177   0.2689   C.ar      1 1      0.0000
     3 C3      -2.8259   0.7617   0.6991   C.ar      1 1      0.0000
     4 C8      -2.4285  -0.3693   0.0027   C.ar      1 1      0.0000
     5 C7      -3.1370  -0.7269  -1.1341   C.ar      1 1      0.0000
     6 C6      -4.2148   0.0284  -1.5652   C.ar      1 1      0.0000
     7 H4      -4.2017   2.4005   0.8246   H         1 1      0.0000
     8 C9      -1.2557  -1.1948   0.4739   C.3       1 1      0.0000
     9 H7      -2.8435  -1.6094  -1.6929   H         1 1      0.0000
    10 H6      -4.7587  -0.2644  -2.4572   H         1 1      0.0000
    11 C10     -0.1618  -0.3600   1.1367   C.3       1 1      0.0000
    12 H9A     -1.6136  -1.9462   1.1885   H         1 1      0.0000
    13 C11      1.0524  -1.1398   1.6149   C.3       1 1      0.0000
    14 C12      2.3259  -0.3038   1.5524   C.3       1 1      0.0000
    15 H12A     3.1274  -0.8312   2.0842   H         1 1      0.0000
    16 C13      2.7718  -0.0255   0.1491   C.2       1 1      0.0000
    17 C14      4.0127   0.7961  -0.0325   C.3       1 1      0.0000
    18 H14B     4.4512   0.5603  -1.0100   H         1 1      0.0000
    19 H14A     4.7454   0.5179   0.7348   H         1 1      0.0000
    20 N        2.1013  -0.5048  -0.8796   N.pl3     1 1      0.0000
    21 HN       1.3238  -1.1287  -0.6641   H         1 1      0.0000
    22 C        2.4369  -0.3457  -2.2871   C.3       1 1      0.0000
    23 H1A      1.9217  -1.0883  -2.8927   H         1 1      0.0000
    24 H1C      2.1483   0.6411  -2.6429   H         1 1      0.0000
    25 H1B      3.5069  -0.4627  -2.4450   H         1 1      0.0000
    26 H10A     0.1756   0.3987   0.4196   H         1 1      0.0000
    27 H10B    -0.5983   0.1624   1.9969   H         1 1      0.0000
    28 H9B     -0.8277  -1.7276  -0.3842   H         1 1      0.0000
    29 H5      -5.4422   1.7432  -1.2012   H         1 1      0.0000
    30 H3      -2.2859   1.0583   1.5923   H         1 1      0.0000
    31 H12B     2.1541   0.6491   2.0681   H         1 1      0.0000
    32 C15      3.7632   2.2911   0.0426   C.3       1 1      0.0000
    33 H15A     3.3226   2.5337   1.0174   H         1 1      0.0000
    34 H15C     3.0393   2.5744  -0.7314   H         1 1      0.0000
    35 OH       0.8336  -1.5600   2.9645   O.3       1 1      0.0000
    36 OH1      0.0216  -2.1229   3.0078   H         1 1      0.0000
    37 H22      1.1786  -2.0294   0.9786   H         1 1      0.0000
    38 C16      5.0286   3.0960  -0.1433   C.3       1 1      0.0000
    39 H16C     5.4768   2.8913  -1.1134   H         1 1      0.0000
    40 H16A     4.8197   4.1621  -0.0846   H         1 1      0.0000
    41 H16B     5.7582   2.8507   0.6256   H         1 1      0.0000
@<TRIPOS>BOND
     1     1     2   ar
     2     1     6   ar
     3     1    29    1
     4     2     3   ar
     5     2     7    1
     6     3     4   ar
     7     3    30    1
     8     4     5   ar
     9     4     8    1
    10     5     6   ar
    11     5     9    1
    12     6    10    1
    13     8    11    1
    14     8    12    1
    15     8    28    1
    16    11    13    1
    17    11    26    1
    18    11    27    1
    19    13    14    1
    20    14    15    1
    21    14    16    1
    22    14    31    1
    23    16    17    1
    24    16    20    2
    25    17    18    1
    26    17    19    1
    27    17    32    1
    28    20    21    1
    29    20    22    1
    30    22    23    1
    31    22    24    1
    32    22    25    1
    33    32    33    1
    34    32    34    1
    35    13    35    1
    36    35    36    1
    37    13    37    1
    38    32    38    1
    39    38    39    1
    40    38    40    1
    41    38    41    1
@<TRIPOS>SUBSTRUCTURE
     1 1           1 GROUP             0 ****  ****    0  
@<TRIPOS>MOLECULE
Molecule Name_00001_00345
    41    41     1     0     0
SMALL
NO_CHARGES
****
Generated from the CSD

@<TRIPOS>ATOM
     1 C5      -3.9537   1.7579  -0.6599   C.ar      1 1      0.0000
     2 C4      -3.1488   0.9372  -1.4202   C.ar      1 1      0.0000
     3 C3      -2.4616  -0.1078  -0.8255   C.ar      1 1      0.0000
     4 C8      -2.5708  -0.3461   0.5359   C.ar      1 1      0.0000
     5 C7      -3.3831   0.4881   1.2886   C.ar      1 1      0.0000
     6 C6      -4.0707   1.5333   0.6949   C.ar      1 1      0.0000
     7 H4      -3.0533   1.1103  -2.4870   H         1 1      0.0000
     8 C9      -1.8190  -1.4833   1.1842   C.3       1 1      0.0000
     9 H7      -3.4812   0.3199   2.3560   H         1 1      0.0000
    10 H6      -4.7029   2.1769   1.2976   H         1 1      0.0000
    11 C10     -0.4042  -1.0999   1.6135   C.3       1 1      0.0000
    12 H9A     -2.3787  -1.8244   2.0639   H         1 1      0.0000
    13 C11      0.5726  -0.8400   0.4779   C.3       1 1      0.0000
    14 C12      1.9523  -0.4460   0.9936   C.3       1 1      0.0000
    15 H12A     2.3743  -1.2829   1.5637   H         1 1      0.0000
    16 C13      2.9013  -0.0761  -0.1055   C.2       1 1      0.0000
    17 C14      2.6906   1.2427  -0.7868   C.3       1 1      0.0000
    18 H14B     1.6125   1.4281  -0.8694   H         1 1      0.0000
    19 H14A     3.0967   1.1923  -1.8045   H         1 1      0.0000
    20 N        3.8914  -0.8790  -0.4407   N.pl3     1 1      0.0000
    21 HN       4.0160  -1.7115   0.1350   H         1 1      0.0000
    22 C        4.9040  -0.6337  -1.4574   C.3       1 1      0.0000
    23 H1A      5.8608  -1.0570  -1.1587   H         1 1      0.0000
    24 H1C      4.6155  -1.0837  -2.4050   H         1 1      0.0000
    25 H1B      5.0407   0.4337  -1.6174   H         1 1      0.0000
    26 H10A    -0.4641  -0.1953   2.2312   H         1 1      0.0000
    27 H10B    -0.0014  -1.9065   2.2384   H         1 1      0.0000
    28 H9B     -1.7631  -2.3214   0.4786   H         1 1      0.0000
    29 H5      -4.4925   2.5765  -1.1254   H         1 1      0.0000
    30 H3      -1.8300  -0.7479  -1.4326   H         1 1      0.0000
    31 H12B     1.8489   0.4053   1.6778   H         1 1      0.0000
    32 C15      3.3317   2.4085  -0.0570   C.3       1 1      0.0000
    33 H15A     3.2598   3.3074  -0.6816   H         1 1      0.0000
    34 H15C     4.3962   2.1939   0.0989   H         1 1      0.0000
    35 OH       0.6896  -2.0243  -0.3155   O.3       1 1      0.0000
    36 OH1     -0.1871  -2.2393  -0.7195   H         1 1      0.0000
    37 H22      0.1810  -0.0250  -0.1503   H         1 1      0.0000
    38 C16      2.6797   2.6800   1.2790   C.3       1 1      0.0000
    39 H16C     3.0260   1.9712   2.0283   H         1 1      0.0000
    40 H16A     2.9163   3.6834   1.6268   H         1 1      0.0000
    41 H16B     1.5977   2.5934   1.2049   H         1 1      0.0000
@<TRIPOS>BOND
     1     1     2   ar
     2     1     6   ar
     3     1    29    1
     4     2     3   ar
     5     2     7    1
     6     3     4   ar
     7     3    30    1
     8     4     5   ar
     9     4     8    1
    10     5     6   ar
    11     5     9    1
    12     6    10    1
    13     8    11    1
    14     8    12    1
    15     8    28    1
    16    11    13    1
    17    11    26    1
    18    11    27    1
    19    13    14    1
    20    14    15    1
    21    14    16    1
    22    14    31    1
    23    16    17    1
    24    16    20    2
    25    17    18    1
    26    17    19    1
    27    17    32    1
    28    20    21    1
    29    20    22    1
    30    22    23    1
    31    22    24    1
    32    22    25    1
    33    32    33    1
    34    32    34    1
    35    13    35    1
    36    35    36    1
    37    13    37    1
    38    32    38    1
    39    38    39    1
    40    38    40    1
    41    38    41    1
@<TRIPOS>SUBSTRUCTURE
     1 1           1 GROUP             0 ****  ****    0  
@<TRIPOS>MOLECULE
Molecule Name_00001_00346
    41    41     1     0     0
SMALL
NO_CHARGES
****
Generated from the CSD

@<TRIPOS>ATOM
     1 C5      -4.0620   1.7354  -0.7434   C.ar      1 1      0.0000
     2 C4      -3.2119   0.9436  -1.4851   C.ar      1 1      0.0000
     3 C3      -2.5364  -0.1052  -0.8837   C.ar      1 1      0.0000
     4 C8      -2.7025  -0.3762   0.4658   C.ar      1 1      0.0000
     5 C7      -3.5598   0.4291   1.1998   C.ar      1 1      0.0000
     6 C6      -4.2358   1.4781   0.5993   C.ar      1 1      0.0000
     7 H4      -3.0717   1.1425  -2.5424   H         1 1      0.0000
     8 C9      -1.9635  -1.5175   1.1216   C.3       1 1      0.0000
     9 H7      -3.7028   0.2351   2.2576   H         1 1      0.0000
    10 H6      -4.9037   2.0989   1.1874   H         1 1      0.0000
    11 C10     -0.5750  -1.1245   1.6223   C.3       1 1      0.0000
    12 H9A     -2.5567  -1.8865   1.9674   H         1 1      0.0000
    13 C11      0.4473  -0.8251   0.5378   C.3       1 1      0.0000
    14 C12      1.7967  -0.4240   1.1234   C.3       1 1      0.0000
    15 H12A     2.2054  -1.2678   1.6930   H         1 1      0.0000
    16 C13      2.7881  -0.0157   0.0765   C.2       1 1      0.0000
    17 C14      2.5942   1.3197  -0.5767   C.3       1 1      0.0000
    18 H14B     1.5222   1.4741  -0.7510   H         1 1      0.0000
    19 H14A     3.0918   1.3193  -1.5541   H         1 1      0.0000
    20 N        3.7991  -0.8008  -0.2381   N.pl3     1 1      0.0000
    21 HN       3.9068  -1.6481   0.3193   H         1 1      0.0000
    22 C        4.8516  -0.5190  -1.2034   C.3       1 1      0.0000
    23 H1A      5.8039  -0.9212  -0.8639   H         1 1      0.0000
    24 H1C      4.6196  -0.9659  -2.1678   H         1 1      0.0000
    25 H1B      4.9681   0.5531  -1.3465   H         1 1      0.0000
    26 H10A    -0.6758  -0.2352   2.2567   H         1 1      0.0000
    27 H10B    -0.1885  -1.9396   2.2465   H         1 1      0.0000
    28 H9B     -1.8638  -2.3383   0.4006   H         1 1      0.0000
    29 H5      -4.5916   2.5569  -1.2143   H         1 1      0.0000
    30 H3      -1.8689  -0.7223  -1.4760   H         1 1      0.0000
    31 H12B     1.6504   0.4099   1.8211   H         1 1      0.0000
    32 C15      3.1264   2.4777   0.2472   C.3       1 1      0.0000
    33 H15A     2.6552   2.4609   1.2377   H         1 1      0.0000
    34 H15C     2.8503   3.4217  -0.2385   H         1 1      0.0000
    35 OH       0.6171  -1.9891  -0.2759   O.3       1 1      0.0000
    36 OH1     -0.2337  -2.1988  -0.7343   H         1 1      0.0000
    37 H22      0.0720  -0.0013  -0.0890   H         1 1      0.0000
    38 C16      4.6276   2.4250   0.4119   C.3       1 1      0.0000
    39 H16C     5.1233   2.4622  -0.5560   H         1 1      0.0000
    40 H16A     4.9802   3.2657   1.0057   H         1 1      0.0000
    41 H16B     4.9289   1.5069   0.9119   H         1 1      0.0000
@<TRIPOS>BOND
     1     1     2   ar
     2     1     6   ar
     3     1    29    1
     4     2     3   ar
     5     2     7    1
     6     3     4   ar
     7     3    30    1
     8     4     5   ar
     9     4     8    1
    10     5     6   ar
    11     5     9    1
    12     6    10    1
    13     8    11    1
    14     8    12    1
    15     8    28    1
    16    11    13    1
    17    11    26    1
    18    11    27    1
    19    13    14    1
    20    14    15    1
    21    14    16    1
    22    14    31    1
    23    16    17    1
    24    16    20    2
    25    17    18    1
    26    17    19    1
    27    17    32    1
    28    20    21    1
    29    20    22    1
    30    22    23    1
    31    22    24    1
    32    22    25    1
    33    32    33    1
    34    32    34    1
    35    13    35    1
    36    35    36    1
    37    13    37    1
    38    32    38    1
    39    38    39    1
    40    38    40    1
    41    38    41    1
@<TRIPOS>SUBSTRUCTURE
     1 1           1 GROUP             0 ****  ****    0  
@<TRIPOS>MOLECULE
Molecule Name_00001_00347
    41    41     1     0     0
SMALL
NO_CHARGES
****
Generated from the CSD

@<TRIPOS>ATOM
     1 C5      -3.8528   2.0566   0.0216   C.ar      1 1      0.0000
     2 C4      -2.8689   1.7502  -0.8935   C.ar      1 1      0.0000
     3 C3      -2.2173   0.5298  -0.8319   C.ar      1 1      0.0000
     4 C8      -2.5412  -0.3998   0.1443   C.ar      1 1      0.0000
     5 C7      -3.5320  -0.0778   1.0590   C.ar      1 1      0.0000
     6 C6      -4.1843   1.1424   0.9983   C.ar      1 1      0.0000
     7 H4      -2.6043   2.4669  -1.6640   H         1 1      0.0000
     8 C9      -1.8284  -1.7287   0.2131   C.3       1 1      0.0000
     9 H7      -3.7997  -0.7905   1.8321   H         1 1      0.0000
    10 H6      -4.9579   1.3792   1.7212   H         1 1      0.0000
    11 C10     -0.5420  -1.6778   1.0351   C.3       1 1      0.0000
    12 H9A     -2.5039  -2.4727   0.6531   H         1 1      0.0000
    13 C11      0.5934  -0.8769   0.4182   C.3       1 1      0.0000
    14 C12      1.8295  -0.8626   1.3106   C.3       1 1      0.0000
    15 H12A     2.1762  -1.8927   1.4594   H         1 1      0.0000
    16 C13      2.9504  -0.0478   0.7403   C.2       1 1      0.0000
    17 C14      2.8288   1.4446   0.8157   C.3       1 1      0.0000
    18 H14B     3.8340   1.8761   0.8978   H         1 1      0.0000
    19 H14A     2.2767   1.7165   1.7237   H         1 1      0.0000
    20 N        4.0071  -0.6311   0.2108   N.pl3     1 1      0.0000
    21 HN       4.0493  -1.6475   0.2839   H         1 1      0.0000
    22 C        5.1792   0.0303  -0.3441   C.3       1 1      0.0000
    23 H1A      6.0362  -0.6400  -0.3444   H         1 1      0.0000
    24 H1C      4.9948   0.3449  -1.3692   H         1 1      0.0000
    25 H1B      5.4382   0.9115   0.2389   H         1 1      0.0000
    26 H10A    -0.7760  -1.2459   2.0160   H         1 1      0.0000
    27 H10B    -0.1930  -2.7053   1.1958   H         1 1      0.0000
    28 H9B     -1.5882  -2.0571  -0.8057   H         1 1      0.0000
    29 H5      -4.3638   3.0125  -0.0265   H         1 1      0.0000
    30 H3      -1.4437   0.2983  -1.5566   H         1 1      0.0000
    31 H12B     1.5571  -0.4571   2.2929   H         1 1      0.0000
    32 C15      2.1324   2.0550  -0.3865   C.3       1 1      0.0000
    33 H15A     1.9916   3.1291  -0.2137   H         1 1      0.0000
    34 H15C     1.1397   1.6011  -0.4961   H         1 1      0.0000
    35 OH       0.9350  -1.4518  -0.8462   O.3       1 1      0.0000
    36 OH1      0.1711  -1.3610  -1.4676   H         1 1      0.0000
    37 H22      0.2553   0.1591   0.2613   H         1 1      0.0000
    38 C16      2.9123   1.8569  -1.6656   C.3       1 1      0.0000
    39 H16C     3.0486   0.7978  -1.8742   H         1 1      0.0000
    40 H16A     2.3901   2.3040  -2.5089   H         1 1      0.0000
    41 H16B     3.8955   2.3173  -1.5930   H         1 1      0.0000
@<TRIPOS>BOND
     1     1     2   ar
     2     1     6   ar
     3     1    29    1
     4     2     3   ar
     5     2     7    1
     6     3     4   ar
     7     3    30    1
     8     4     5   ar
     9     4     8    1
    10     5     6   ar
    11     5     9    1
    12     6    10    1
    13     8    11    1
    14     8    12    1
    15     8    28    1
    16    11    13    1
    17    11    26    1
    18    11    27    1
    19    13    14    1
    20    14    15    1
    21    14    16    1
    22    14    31    1
    23    16    17    1
    24    16    20    2
    25    17    18    1
    26    17    19    1
    27    17    32    1
    28    20    21    1
    29    20    22    1
    30    22    23    1
    31    22    24    1
    32    22    25    1
    33    32    33    1
    34    32    34    1
    35    13    35    1
    36    35    36    1
    37    13    37    1
    38    32    38    1
    39    38    39    1
    40    38    40    1
    41    38    41    1
@<TRIPOS>SUBSTRUCTURE
     1 1           1 GROUP             0 ****  ****    0  
@<TRIPOS>MOLECULE
Molecule Name_00001_00348
    41    41     1     0     0
SMALL
NO_CHARGES
****
Generated from the CSD

@<TRIPOS>ATOM
     1 C5      -4.2740  -1.5691   0.2636   C.ar      1 1      0.0000
     2 C4      -3.3798  -1.1741   1.2350   C.ar      1 1      0.0000
     3 C3      -2.6363  -0.0178   1.0672   C.ar      1 1      0.0000
     4 C8      -2.7779   0.7584  -0.0728   C.ar      1 1      0.0000
     5 C7      -3.6802   0.3484  -1.0422   C.ar      1 1      0.0000
     6 C6      -4.4241  -0.8078  -0.8754   C.ar      1 1      0.0000
     7 H4      -3.2579  -1.7704   2.1332   H         1 1      0.0000
     8 C9      -1.9649   2.0170  -0.2568   C.3       1 1      0.0000
     9 H7      -3.8051   0.9406  -1.9427   H         1 1      0.0000
    10 H6      -5.1267  -1.1149  -1.6430   H         1 1      0.0000
    11 C10     -0.6013   1.7626  -0.8962   C.3       1 1      0.0000
    12 H9A     -2.5292   2.7165  -0.8858   H         1 1      0.0000
    13 C11      0.3944   1.0100  -0.0282   C.3       1 1      0.0000
    14 C12      1.7189   0.7830  -0.7486   C.3       1 1      0.0000
    15 H12A     2.2071   1.7512  -0.9147   H         1 1      0.0000
    16 C13      2.6509  -0.1094   0.0133   C.2       1 1      0.0000
    17 C14      3.3768   0.4852   1.1827   C.3       1 1      0.0000
    18 H14B     3.6550  -0.3218   1.8717   H         1 1      0.0000
    19 H14A     2.7016   1.1618   1.7207   H         1 1      0.0000
    20 N        2.8059  -1.3728  -0.3290   N.pl3     1 1      0.0000
    21 HN       2.2055  -1.7174  -1.0780   H         1 1      0.0000
    22 C        3.6442  -2.3582   0.3381   C.3       1 1      0.0000
    23 H1A      3.3319  -3.3681   0.0804   H         1 1      0.0000
    24 H1C      4.6853  -2.2404   0.0447   H         1 1      0.0000
    25 H1B      3.5829  -2.2499   1.4189   H         1 1      0.0000
    26 H10A    -0.7546   1.1915  -1.8202   H         1 1      0.0000
    27 H10B    -0.1609   2.7296  -1.1688   H         1 1      0.0000
    28 H9B     -1.8176   2.4919   0.7211   H         1 1      0.0000
    29 H5      -4.8569  -2.4748   0.3948   H         1 1      0.0000
    30 H3      -1.9345   0.2844   1.8375   H         1 1      0.0000
    31 H12B     1.5202   0.3367  -1.7307   H         1 1      0.0000
    32 C15      4.6297   1.2467   0.7916   C.3       1 1      0.0000
    33 H15A     5.0412   1.7426   1.6795   H         1 1      0.0000
    34 H15C     4.3656   2.0257   0.0658   H         1 1      0.0000
    35 OH       0.6328   1.7617   1.1650   O.3       1 1      0.0000
    36 OH1     -0.2065   1.8346   1.6829   H         1 1      0.0000
    37 H22     -0.0354   0.0334   0.2433   H         1 1      0.0000
    38 C16      5.6862   0.3478   0.1919   C.3       1 1      0.0000
    39 H16C     5.3123  -0.1417  -0.7049   H         1 1      0.0000
    40 H16A     6.5713   0.9199  -0.0782   H         1 1      0.0000
    41 H16B     5.9838  -0.4230   0.8998   H         1 1      0.0000
@<TRIPOS>BOND
     1     1     2   ar
     2     1     6   ar
     3     1    29    1
     4     2     3   ar
     5     2     7    1
     6     3     4   ar
     7     3    30    1
     8     4     5   ar
     9     4     8    1
    10     5     6   ar
    11     5     9    1
    12     6    10    1
    13     8    11    1
    14     8    12    1
    15     8    28    1
    16    11    13    1
    17    11    26    1
    18    11    27    1
    19    13    14    1
    20    14    15    1
    21    14    16    1
    22    14    31    1
    23    16    17    1
    24    16    20    2
    25    17    18    1
    26    17    19    1
    27    17    32    1
    28    20    21    1
    29    20    22    1
    30    22    23    1
    31    22    24    1
    32    22    25    1
    33    32    33    1
    34    32    34    1
    35    13    35    1
    36    35    36    1
    37    13    37    1
    38    32    38    1
    39    38    39    1
    40    38    40    1
    41    38    41    1
@<TRIPOS>SUBSTRUCTURE
     1 1           1 GROUP             0 ****  ****    0  
@<TRIPOS>MOLECULE
Molecule Name_00001_00349
    41    41     1     0     0
SMALL
NO_CHARGES
****
Generated from the CSD

@<TRIPOS>ATOM
     1 C5      -4.2803  -1.4961  -0.0758   C.ar      1 1      0.0000
     2 C4      -3.3578  -1.3801   0.9416   C.ar      1 1      0.0000
     3 C3      -2.5656  -0.2482   1.0364   C.ar      1 1      0.0000
     4 C8      -2.6858   0.7820   0.1164   C.ar      1 1      0.0000
     5 C7      -3.6170   0.6512  -0.9024   C.ar      1 1      0.0000
     6 C6      -4.4097  -0.4803  -0.9981   C.ar      1 1      0.0000
     7 H4      -3.2521  -2.1774   1.6699   H         1 1      0.0000
     8 C9      -1.8197   2.0142   0.2182   C.3       1 1      0.0000
     9 H7      -3.7260   1.4452  -1.6338   H         1 1      0.0000
    10 H6      -5.1343  -0.5673  -1.8010   H         1 1      0.0000
    11 C10     -0.4765   1.8641  -0.4934   C.3       1 1      0.0000
    12 H9A     -2.3596   2.8655  -0.2144   H         1 1      0.0000
    13 C11      0.4948   0.8870   0.1491   C.3       1 1      0.0000
    14 C12      1.7992   0.7843  -0.6336   C.3       1 1      0.0000
    15 H12A     2.3269   1.7444  -0.5783   H         1 1      0.0000
    16 C13      2.7010  -0.2985  -0.1236   C.2       1 1      0.0000
    17 C14      3.4686  -0.0241   1.1346   C.3       1 1      0.0000
    18 H14B     3.6712  -0.9773   1.6384   H         1 1      0.0000
    19 H14A     2.8517   0.5822   1.8090   H         1 1      0.0000
    20 N        2.7948  -1.4516  -0.7552   N.pl3     1 1      0.0000
    21 HN       2.1694  -1.5867  -1.5494   H         1 1      0.0000
    22 C        3.5975  -2.5987  -0.3568   C.3       1 1      0.0000
    23 H1A      3.2225  -3.5104  -0.8173   H         1 1      0.0000
    24 H1C      4.6341  -2.4676  -0.6601   H         1 1      0.0000
    25 H1B      3.5749  -2.7303   0.7229   H         1 1      0.0000
    26 H10A    -0.6661   1.5360  -1.5228   H         1 1      0.0000
    27 H10B     0.0033   2.8495  -0.5385   H         1 1      0.0000
    28 H9B     -1.6398   2.2364   1.2773   H         1 1      0.0000
    29 H5      -4.9014  -2.3827  -0.1502   H         1 1      0.0000
    30 H3      -1.8418  -0.1666   1.8406   H         1 1      0.0000
    31 H12B     1.5692   0.5902  -1.6885   H         1 1      0.0000
    32 C15      4.7856   0.6906   0.8946   C.3       1 1      0.0000
    33 H15A     5.3816   0.1148   0.1758   H         1 1      0.0000
    34 H15C     5.3477   0.7348   1.8356   H         1 1      0.0000
    35 OH       0.7807   1.3229   1.4811   O.3       1 1      0.0000
    36 OH1     -0.0456   1.2917   2.0235   H         1 1      0.0000
    37 H22      0.0251  -0.1080   0.1908   H         1 1      0.0000
    38 C16      4.5916   2.0931   0.3663   C.3       1 1      0.0000
    39 H16C     3.8178   2.6129   0.9274   H         1 1      0.0000
    40 H16A     5.5125   2.6667   0.4476   H         1 1      0.0000
    41 H16B     4.2958   2.0734  -0.6805   H         1 1      0.0000
@<TRIPOS>BOND
     1     1     2   ar
     2     1     6   ar
     3     1    29    1
     4     2     3   ar
     5     2     7    1
     6     3     4   ar
     7     3    30    1
     8     4     5   ar
     9     4     8    1
    10     5     6   ar
    11     5     9    1
    12     6    10    1
    13     8    11    1
    14     8    12    1
    15     8    28    1
    16    11    13    1
    17    11    26    1
    18    11    27    1
    19    13    14    1
    20    14    15    1
    21    14    16    1
    22    14    31    1
    23    16    17    1
    24    16    20    2
    25    17    18    1
    26    17    19    1
    27    17    32    1
    28    20    21    1
    29    20    22    1
    30    22    23    1
    31    22    24    1
    32    22    25    1
    33    32    33    1
    34    32    34    1
    35    13    35    1
    36    35    36    1
    37    13    37    1
    38    32    38    1
    39    38    39    1
    40    38    40    1
    41    38    41    1
@<TRIPOS>SUBSTRUCTURE
     1 1           1 GROUP             0 ****  ****    0  
@<TRIPOS>MOLECULE
Molecule Name_00001_00350
    41    41     1     0     0
SMALL
NO_CHARGES
****
Generated from the CSD

@<TRIPOS>ATOM
     1 C5      -4.5145  -0.9597   0.8928   C.ar      1 1      0.0000
     2 C4      -4.3989  -0.9192  -0.4799   C.ar      1 1      0.0000
     3 C3      -3.2752  -0.3620  -1.0671   C.ar      1 1      0.0000
     4 C8      -2.2531   0.1609  -0.2901   C.ar      1 1      0.0000
     5 C7      -2.3833   0.1145   1.0894   C.ar      1 1      0.0000
     6 C6      -3.5066  -0.4425   1.6777   C.ar      1 1      0.0000
     7 H4      -5.1900  -1.3248  -1.1019   H         1 1      0.0000
     8 C9      -1.0299   0.7711  -0.9306   C.3       1 1      0.0000
     9 H7      -1.5955   0.5196   1.7159   H         1 1      0.0000
    10 H6      -3.5932  -0.4718   2.7588   H         1 1      0.0000
    11 C10     -0.0162   1.2916   0.0865   C.3       1 1      0.0000
    12 H9A     -0.5457   0.0171  -1.5633   H         1 1      0.0000
    13 C11      1.2367   1.9173  -0.5049   C.3       1 1      0.0000
    14 C12      2.0487   0.9102  -1.3117   C.3       1 1      0.0000
    15 H12A     2.8677   1.4346  -1.8194   H         1 1      0.0000
    16 C13      2.6212  -0.1871  -0.4667   C.2       1 1      0.0000
    17 C14      3.7952   0.1500   0.4026   C.3       1 1      0.0000
    18 H14B     4.3916   0.9243  -0.0957   H         1 1      0.0000
    19 H14A     4.4302  -0.7376   0.5121   H         1 1      0.0000
    20 N        2.0938  -1.3950  -0.4813   N.pl3     1 1      0.0000
    21 HN       1.2424  -1.5123  -1.0304   H         1 1      0.0000
    22 C        2.5208  -2.5401   0.3095   C.3       1 1      0.0000
    23 H1A      1.6677  -3.1538   0.5913   H         1 1      0.0000
    24 H1C      3.2132  -3.1613  -0.2548   H         1 1      0.0000
    25 H1B      3.0211  -2.2165   1.2197   H         1 1      0.0000
    26 H10A    -0.5123   2.0408   0.7158   H         1 1      0.0000
    27 H10B     0.2854   0.4578   0.7325   H         1 1      0.0000
    28 H9B     -1.3429   1.5992  -1.5785   H         1 1      0.0000
    29 H5      -5.3945  -1.3964   1.3533   H         1 1      0.0000
    30 H3      -3.1939  -0.3343  -2.1487   H         1 1      0.0000
    31 H12B     1.4061   0.4685  -2.0833   H         1 1      0.0000
    32 C15      3.4023   0.6484   1.7810   C.3       1 1      0.0000
    33 H15A     2.7836  -0.1108   2.2752   H         1 1      0.0000
    34 H15C     2.7964   1.5569   1.6760   H         1 1      0.0000
    35 OH       0.8576   3.0027  -1.3559   O.3       1 1      0.0000
    36 OH1      0.3507   3.6714  -0.8326   H         1 1      0.0000
    37 H22      1.8624   2.3054   0.3137   H         1 1      0.0000
    38 C16      4.6027   0.9503   2.6479   C.3       1 1      0.0000
    39 H16C     5.2246   1.7178   2.1918   H         1 1      0.0000
    40 H16A     4.2912   1.3049   3.6282   H         1 1      0.0000
    41 H16B     5.2115   0.0595   2.7874   H         1 1      0.0000
@<TRIPOS>BOND
     1     1     2   ar
     2     1     6   ar
     3     1    29    1
     4     2     3   ar
     5     2     7    1
     6     3     4   ar
     7     3    30    1
     8     4     5   ar
     9     4     8    1
    10     5     6   ar
    11     5     9    1
    12     6    10    1
    13     8    11    1
    14     8    12    1
    15     8    28    1
    16    11    13    1
    17    11    26    1
    18    11    27    1
    19    13    14    1
    20    14    15    1
    21    14    16    1
    22    14    31    1
    23    16    17    1
    24    16    20    2
    25    17    18    1
    26    17    19    1
    27    17    32    1
    28    20    21    1
    29    20    22    1
    30    22    23    1
    31    22    24    1
    32    22    25    1
    33    32    33    1
    34    32    34    1
    35    13    35    1
    36    35    36    1
    37    13    37    1
    38    32    38    1
    39    38    39    1
    40    38    40    1
    41    38    41    1
@<TRIPOS>SUBSTRUCTURE
     1 1           1 GROUP             0 ****  ****    0  
@<TRIPOS>MOLECULE
Molecule Name_00001_00351
    41    41     1     0     0
SMALL
NO_CHARGES
****
Generated from the CSD

@<TRIPOS>ATOM
     1 C5      -4.7785  -1.2231   0.2901   C.ar      1 1      0.0000
     2 C4      -4.5422  -0.7735  -0.9911   C.ar      1 1      0.0000
     3 C3      -3.3905  -0.0593  -1.2763   C.ar      1 1      0.0000
     4 C8      -2.4603   0.2138  -0.2852   C.ar      1 1      0.0000
     5 C7      -2.7116  -0.2435   0.9993   C.ar      1 1      0.0000
     6 C6      -3.8630  -0.9578   1.2855   C.ar      1 1      0.0000
     7 H4      -5.2602  -0.9796  -1.7781   H         1 1      0.0000
     8 C9      -1.2066   0.9952  -0.5958   C.3       1 1      0.0000
     9 H7      -1.9973  -0.0392   1.7901   H         1 1      0.0000
    10 H6      -4.0448  -1.3094   2.2958   H         1 1      0.0000
    11 C10     -0.3063   1.1942   0.6220   C.3       1 1      0.0000
    12 H9A     -0.6421   0.4676  -1.3745   H         1 1      0.0000
    13 C11      0.9721   1.9758   0.3655   C.3       1 1      0.0000
    14 C12      1.8871   1.2608  -0.6225   C.3       1 1      0.0000
    15 H12A     2.6949   1.9409  -0.9197   H         1 1      0.0000
    16 C13      2.4861   0.0076  -0.0600   C.2       1 1      0.0000
    17 C14      3.5519   0.1582   0.9837   C.3       1 1      0.0000
    18 H14B     3.5791  -0.7534   1.5933   H         1 1      0.0000
    19 H14A     3.2924   0.9924   1.6470   H         1 1      0.0000
    20 N        2.0719  -1.1775  -0.4615   N.pl3     1 1      0.0000
    21 HN       1.2811  -1.1881  -1.1054   H         1 1      0.0000
    22 C        2.5351  -2.4704   0.0212   C.3       1 1      0.0000
    23 H1A      1.8349  -3.2572  -0.2515   H         1 1      0.0000
    24 H1C      3.5047  -2.7165  -0.4066   H         1 1      0.0000
    25 H1B      2.6346  -2.4656   1.1045   H         1 1      0.0000
    26 H10A    -0.8821   1.7180   1.3950   H         1 1      0.0000
    27 H10B    -0.0351   0.2073   1.0169   H         1 1      0.0000
    28 H9B     -1.4888   1.9770  -0.9953   H         1 1      0.0000
    29 H5      -5.6806  -1.7829   0.5138   H         1 1      0.0000
    30 H3      -3.2139   0.2908  -2.2880   H         1 1      0.0000
    31 H12B     1.3141   1.0094  -1.5235   H         1 1      0.0000
    32 C15      4.9337   0.3997   0.4049   C.3       1 1      0.0000
    33 H15A     4.9132   1.3094  -0.2078   H         1 1      0.0000
    34 H15C     5.2011  -0.4387  -0.2501   H         1 1      0.0000
    35 OH       0.6334   3.2634  -0.1570   O.3       1 1      0.0000
    36 OH1      0.0591   3.7421   0.4903   H         1 1      0.0000
    37 H22      1.5085   2.1053   1.3182   H         1 1      0.0000
    38 C16      5.9889   0.5479   1.4765   C.3       1 1      0.0000
    39 H16C     6.0468  -0.3504   2.0876   H         1 1      0.0000
    40 H16A     6.9675   0.7198   1.0331   H         1 1      0.0000
    41 H16B     5.7603   1.3878   2.1293   H         1 1      0.0000
@<TRIPOS>BOND
     1     1     2   ar
     2     1     6   ar
     3     1    29    1
     4     2     3   ar
     5     2     7    1
     6     3     4   ar
     7     3    30    1
     8     4     5   ar
     9     4     8    1
    10     5     6   ar
    11     5     9    1
    12     6    10    1
    13     8    11    1
    14     8    12    1
    15     8    28    1
    16    11    13    1
    17    11    26    1
    18    11    27    1
    19    13    14    1
    20    14    15    1
    21    14    16    1
    22    14    31    1
    23    16    17    1
    24    16    20    2
    25    17    18    1
    26    17    19    1
    27    17    32    1
    28    20    21    1
    29    20    22    1
    30    22    23    1
    31    22    24    1
    32    22    25    1
    33    32    33    1
    34    32    34    1
    35    13    35    1
    36    35    36    1
    37    13    37    1
    38    32    38    1
    39    38    39    1
    40    38    40    1
    41    38    41    1
@<TRIPOS>SUBSTRUCTURE
     1 1           1 GROUP             0 ****  ****    0  
@<TRIPOS>MOLECULE
Molecule Name_00001_00352
    41    41     1     0     0
SMALL
NO_CHARGES
****
Generated from the CSD

@<TRIPOS>ATOM
     1 C5      -4.2827   1.5790  -0.4766   C.ar      1 1      0.0000
     2 C4      -3.9188   1.6858   0.8484   C.ar      1 1      0.0000
     3 C3      -2.8054   1.0108   1.3204   C.ar      1 1      0.0000
     4 C8      -2.0417   0.2216   0.4743   C.ar      1 1      0.0000
     5 C7      -2.4202   0.1224  -0.8558   C.ar      1 1      0.0000
     6 C6      -3.5333   0.7970  -1.3288   C.ar      1 1      0.0000
     7 H4      -4.5059   2.2999   1.5232   H         1 1      0.0000
     8 C9      -0.8300  -0.5165   0.9900   C.3       1 1      0.0000
     9 H7      -1.8370  -0.4912  -1.5344   H         1 1      0.0000
    10 H6      -3.8161   0.7096  -2.3727   H         1 1      0.0000
    11 C10     -0.1193  -1.3310  -0.0891   C.3       1 1      0.0000
    12 H9A     -0.1241   0.2092   1.4123   H         1 1      0.0000
    13 C11      1.1096  -2.0956   0.3761   C.3       1 1      0.0000
    14 C12      2.1586  -1.1706   0.9833   C.3       1 1      0.0000
    15 H12A     2.9346  -1.7770   1.4666   H         1 1      0.0000
    16 C13      2.8011  -0.2734  -0.0306   C.2       1 1      0.0000
    17 C14      2.1203   1.0276  -0.3333   C.3       1 1      0.0000
    18 H14B     1.0349   0.8691  -0.3171   H         1 1      0.0000
    19 H14A     2.3926   1.3506  -1.3455   H         1 1      0.0000
    20 N        3.9316  -0.6165  -0.6152   N.pl3     1 1      0.0000
    21 HN       4.3726  -1.4741  -0.2832   H         1 1      0.0000
    22 C        4.6820   0.1675  -1.5853   C.3       1 1      0.0000
    23 H1A      5.7520   0.0165  -1.4582   H         1 1      0.0000
    24 H1C      4.4176  -0.1204  -2.6006   H         1 1      0.0000
    25 H1B      4.4733   1.2288  -1.4692   H         1 1      0.0000
    26 H10A    -0.8352  -2.0495  -0.5070   H         1 1      0.0000
    27 H10B     0.1815  -0.6502  -0.8950   H         1 1      0.0000
    28 H9B     -1.1406  -1.1895   1.7987   H         1 1      0.0000
    29 H5      -5.1548   2.1079  -0.8469   H         1 1      0.0000
    30 H3      -2.5275   1.1008   2.3653   H         1 1      0.0000
    31 H12B     1.6865  -0.5537   1.7578   H         1 1      0.0000
    32 C15      2.4669   2.1327   0.6472   C.3       1 1      0.0000
    33 H15A     3.5517   2.2951   0.6375   H         1 1      0.0000
    34 H15C     2.1850   1.8172   1.6593   H         1 1      0.0000
    35 OH       0.7141  -3.0614   1.3542   O.3       1 1      0.0000
    36 OH1      0.0510  -3.6795   0.9590   H         1 1      0.0000
    37 H22      1.5520  -2.6188  -0.4857   H         1 1      0.0000
    38 C16      1.7684   3.4323   0.3202   C.3       1 1      0.0000
    39 H16C     0.6880   3.3061   0.3440   H         1 1      0.0000
    40 H16A     2.0353   4.2049   1.0384   H         1 1      0.0000
    41 H16B     2.0472   3.7810  -0.6720   H         1 1      0.0000
@<TRIPOS>BOND
     1     1     2   ar
     2     1     6   ar
     3     1    29    1
     4     2     3   ar
     5     2     7    1
     6     3     4   ar
     7     3    30    1
     8     4     5   ar
     9     4     8    1
    10     5     6   ar
    11     5     9    1
    12     6    10    1
    13     8    11    1
    14     8    12    1
    15     8    28    1
    16    11    13    1
    17    11    26    1
    18    11    27    1
    19    13    14    1
    20    14    15    1
    21    14    16    1
    22    14    31    1
    23    16    17    1
    24    16    20    2
    25    17    18    1
    26    17    19    1
    27    17    32    1
    28    20    21    1
    29    20    22    1
    30    22    23    1
    31    22    24    1
    32    22    25    1
    33    32    33    1
    34    32    34    1
    35    13    35    1
    36    35    36    1
    37    13    37    1
    38    32    38    1
    39    38    39    1
    40    38    40    1
    41    38    41    1
@<TRIPOS>SUBSTRUCTURE
     1 1           1 GROUP             0 ****  ****    0  
@<TRIPOS>MOLECULE
Molecule Name_00001_00353
    41    41     1     0     0
SMALL
NO_CHARGES
****
Generated from the CSD

@<TRIPOS>ATOM
     1 C5      -3.0764   1.9039  -0.8621   C.ar      1 1      0.0000
     2 C4      -2.7322   0.8223  -1.6437   C.ar      1 1      0.0000
     3 C3      -2.3222  -0.3609  -1.0522   C.ar      1 1      0.0000
     4 C8      -2.2518  -0.4782   0.3274   C.ar      1 1      0.0000
     5 C7      -2.5998   0.6183   1.1012   C.ar      1 1      0.0000
     6 C6      -3.0099   1.8019   0.5107   C.ar      1 1      0.0000
     7 H4      -2.7826   0.8979  -2.7249   H         1 1      0.0000
     8 C9      -1.8017  -1.7670   0.9716   C.3       1 1      0.0000
     9 H7      -2.5502   0.5482   2.1828   H         1 1      0.0000
    10 H6      -3.2795   2.6509   1.1303   H         1 1      0.0000
    11 C10     -0.5325  -1.6093   1.8068   C.3       1 1      0.0000
    12 H9A     -2.6070  -2.1442   1.6140   H         1 1      0.0000
    13 C11      0.7515  -1.4325   1.0124   C.3       1 1      0.0000
    14 C12      0.8741  -0.0266   0.4353   C.3       1 1      0.0000
    15 H12A     0.9097   0.6972   1.2590   H         1 1      0.0000
    16 C13      2.0917   0.1477  -0.4206   C.2       1 1      0.0000
    17 C14      2.3144   1.4944  -1.0409   C.3       1 1      0.0000
    18 H14B     1.3444   1.9064  -1.3456   H         1 1      0.0000
    19 H14A     2.9238   1.3789  -1.9455   H         1 1      0.0000
    20 N        2.9381  -0.8466  -0.6004   N.pl3     1 1      0.0000
    21 HN       2.7584  -1.6979  -0.0683   H         1 1      0.0000
    22 C        4.1724  -0.8097  -1.3712   C.3       1 1      0.0000
    23 H1A      4.9320  -1.4397  -0.9132   H         1 1      0.0000
    24 H1C      4.0040  -1.1652  -2.3856   H         1 1      0.0000
    25 H1B      4.5623   0.2043  -1.4284   H         1 1      0.0000
    26 H10A    -0.6563  -0.7378   2.4615   H         1 1      0.0000
    27 H10B    -0.4255  -2.4953   2.4446   H         1 1      0.0000
    28 H9B     -1.6227  -2.5134   0.1878   H         1 1      0.0000
    29 H5      -3.3979   2.8310  -1.3251   H         1 1      0.0000
    30 H3      -2.0528  -1.2066  -1.6763   H         1 1      0.0000
    31 H12B    -0.0181   0.1934  -0.1638   H         1 1      0.0000
    32 C15      2.9940   2.4824  -0.1110   C.3       1 1      0.0000
    33 H15A     3.2485   3.3892  -0.6734   H         1 1      0.0000
    34 H15C     3.9295   2.0442   0.2580   H         1 1      0.0000
    35 OH       1.8679  -1.6859   1.8699   O.3       1 1      0.0000
    36 OH1      1.8067  -2.6054   2.2289   H         1 1      0.0000
    37 H22      0.7626  -2.1592   0.1854   H         1 1      0.0000
    38 C16      2.1237   2.8574   1.0661   C.3       1 1      0.0000
    39 H16C     2.1814   2.1000   1.8452   H         1 1      0.0000
    40 H16A     2.4400   3.8070   1.4926   H         1 1      0.0000
    41 H16B     1.0834   2.9521   0.7619   H         1 1      0.0000
@<TRIPOS>BOND
     1     1     2   ar
     2     1     6   ar
     3     1    29    1
     4     2     3   ar
     5     2     7    1
     6     3     4   ar
     7     3    30    1
     8     4     5   ar
     9     4     8    1
    10     5     6   ar
    11     5     9    1
    12     6    10    1
    13     8    11    1
    14     8    12    1
    15     8    28    1
    16    11    13    1
    17    11    26    1
    18    11    27    1
    19    13    14    1
    20    14    15    1
    21    14    16    1
    22    14    31    1
    23    16    17    1
    24    16    20    2
    25    17    18    1
    26    17    19    1
    27    17    32    1
    28    20    21    1
    29    20    22    1
    30    22    23    1
    31    22    24    1
    32    22    25    1
    33    32    33    1
    34    32    34    1
    35    13    35    1
    36    35    36    1
    37    13    37    1
    38    32    38    1
    39    38    39    1
    40    38    40    1
    41    38    41    1
@<TRIPOS>SUBSTRUCTURE
     1 1           1 GROUP             0 ****  ****    0  
@<TRIPOS>MOLECULE
Molecule Name_00001_00354
    41    41     1     0     0
SMALL
NO_CHARGES
****
Generated from the CSD

@<TRIPOS>ATOM
     1 C5      -3.2170   1.8101  -1.0187   C.ar      1 1      0.0000
     2 C4      -2.8095   0.7117  -1.7444   C.ar      1 1      0.0000
     3 C3      -2.3890  -0.4356  -1.0926   C.ar      1 1      0.0000
     4 C8      -2.3713  -0.4997   0.2922   C.ar      1 1      0.0000
     5 C7      -2.7827   0.6131   1.0094   C.ar      1 1      0.0000
     6 C6      -3.2034   1.7609   0.3586   C.ar      1 1      0.0000
     7 H4      -2.8182   0.7458  -2.8288   H         1 1      0.0000
     8 C9      -1.9098  -1.7494   1.0022   C.3       1 1      0.0000
     9 H7      -2.7750   0.5844   2.0940   H         1 1      0.0000
    10 H6      -3.5230   2.6233   0.9342   H         1 1      0.0000
    11 C10     -0.6809  -1.5216   1.8803   C.3       1 1      0.0000
    12 H9A     -2.7290  -2.1275   1.6261   H         1 1      0.0000
    13 C11      0.6286  -1.3342   1.1312   C.3       1 1      0.0000
    14 C12      0.7327   0.0526   0.5061   C.3       1 1      0.0000
    15 H12A     0.7110   0.8071   1.3021   H         1 1      0.0000
    16 C13      1.9798   0.2340  -0.3048   C.2       1 1      0.0000
    17 C14      2.1984   1.5704  -0.9481   C.3       1 1      0.0000
    18 H14B     1.2390   1.9367  -1.3338   H         1 1      0.0000
    19 H14A     2.8757   1.4533  -1.8028   H         1 1      0.0000
    20 N        2.8538  -0.7451  -0.4267   N.pl3     1 1      0.0000
    21 HN       2.6710  -1.5876   0.1183   H         1 1      0.0000
    22 C        4.1170  -0.6986  -1.1485   C.3       1 1      0.0000
    23 H1A      4.8805  -1.2721  -0.6270   H         1 1      0.0000
    24 H1C      4.0052  -1.1137  -2.1480   H         1 1      0.0000
    25 H1B      4.4696   0.3260  -1.2451   H         1 1      0.0000
    26 H10A    -0.8569  -0.6309   2.4960   H         1 1      0.0000
    27 H10B    -0.5736  -2.3798   2.5551   H         1 1      0.0000
    28 H9B     -1.6771  -2.5181   0.2550   H         1 1      0.0000
    29 H5      -3.5468   2.7091  -1.5289   H         1 1      0.0000
    30 H3      -2.0696  -1.2949  -1.6729   H         1 1      0.0000
    31 H12B    -0.1395   0.2213  -0.1375   H         1 1      0.0000
    32 C15      2.7727   2.6090  -0.0023   C.3       1 1      0.0000
    33 H15A     2.1145   2.7041   0.8701   H         1 1      0.0000
    34 H15C     2.7990   3.5816  -0.5090   H         1 1      0.0000
    35 OH       1.7162  -1.5208   2.0412   O.3       1 1      0.0000
    36 OH1      1.6679  -2.4278   2.4323   H         1 1      0.0000
    37 H22      0.6950  -2.0903   0.3336   H         1 1      0.0000
    38 C16      4.1657   2.2549   0.4643   C.3       1 1      0.0000
    39 H16C     4.8468   2.1751  -0.3803   H         1 1      0.0000
    40 H16A     4.5512   3.0157   1.1399   H         1 1      0.0000
    41 H16B     4.1657   1.3027   0.9908   H         1 1      0.0000
@<TRIPOS>BOND
     1     1     2   ar
     2     1     6   ar
     3     1    29    1
     4     2     3   ar
     5     2     7    1
     6     3     4   ar
     7     3    30    1
     8     4     5   ar
     9     4     8    1
    10     5     6   ar
    11     5     9    1
    12     6    10    1
    13     8    11    1
    14     8    12    1
    15     8    28    1
    16    11    13    1
    17    11    26    1
    18    11    27    1
    19    13    14    1
    20    14    15    1
    21    14    16    1
    22    14    31    1
    23    16    17    1
    24    16    20    2
    25    17    18    1
    26    17    19    1
    27    17    32    1
    28    20    21    1
    29    20    22    1
    30    22    23    1
    31    22    24    1
    32    22    25    1
    33    32    33    1
    34    32    34    1
    35    13    35    1
    36    35    36    1
    37    13    37    1
    38    32    38    1
    39    38    39    1
    40    38    40    1
    41    38    41    1
@<TRIPOS>SUBSTRUCTURE
     1 1           1 GROUP             0 ****  ****    0  
@<TRIPOS>MOLECULE
Molecule Name_00001_00355
    41    41     1     0     0
SMALL
NO_CHARGES
****
Generated from the CSD

@<TRIPOS>ATOM
     1 C5      -2.9193   2.1877  -0.4118   C.ar      1 1      0.0000
     2 C4      -2.3611   1.4427  -1.4280   C.ar      1 1      0.0000
     3 C3      -2.0032   0.1232  -1.2074   C.ar      1 1      0.0000
     4 C8      -2.1993  -0.4683   0.0311   C.ar      1 1      0.0000
     5 C7      -2.7606   0.2934   1.0445   C.ar      1 1      0.0000
     6 C6      -3.1189   1.6130   0.8248   C.ar      1 1      0.0000
     7 H4      -2.2017   1.8910  -2.4032   H         1 1      0.0000
     8 C9      -1.8060  -1.9057   0.2722   C.3       1 1      0.0000
     9 H7      -2.9212  -0.1499   2.0217   H         1 1      0.0000
    10 H6      -3.5577   2.1956   1.6280   H         1 1      0.0000
    11 C10     -0.7390  -2.0626   1.3538   C.3       1 1      0.0000
    12 H9A     -2.6973  -2.4743   0.5649   H         1 1      0.0000
    13 C11      0.6630  -1.6337   0.9521   C.3       1 1      0.0000
    14 C12      0.8093  -0.1162   0.9310   C.3       1 1      0.0000
    15 H12A     0.6343   0.2749   1.9408   H         1 1      0.0000
    16 C13      2.1596   0.3325   0.4608   C.2       1 1      0.0000
    17 C14      2.4237   1.8077   0.4220   C.3       1 1      0.0000
    18 H14B     3.5057   1.9738   0.4940   H         1 1      0.0000
    19 H14A     1.9574   2.2811   1.2946   H         1 1      0.0000
    20 N        3.0793  -0.5456   0.1138   N.pl3     1 1      0.0000
    21 HN       2.8468  -1.5281   0.2580   H         1 1      0.0000
    22 C        4.4370  -0.2561  -0.3244   C.3       1 1      0.0000
    23 H1A      5.0731  -1.1318  -0.2132   H         1 1      0.0000
    24 H1C      4.4490   0.0407  -1.3710   H         1 1      0.0000
    25 H1B      4.8682   0.5527   0.2616   H         1 1      0.0000
    26 H10A    -1.0436  -1.4728   2.2272   H         1 1      0.0000
    27 H10B    -0.7051  -3.1165   1.6562   H         1 1      0.0000
    28 H9B     -1.4298  -2.3339  -0.6651   H         1 1      0.0000
    29 H5      -3.2001   3.2215  -0.5844   H         1 1      0.0000
    30 H3      -1.5639  -0.4548  -2.0137   H         1 1      0.0000
    31 H12B     0.0423   0.3081   0.2713   H         1 1      0.0000
    32 C15      1.9095   2.4801  -0.8375   C.3       1 1      0.0000
    33 H15A     2.0382   3.5655  -0.7441   H         1 1      0.0000
    34 H15C     0.8362   2.2783  -0.9406   H         1 1      0.0000
    35 OH       1.6017  -2.1820   1.8817   O.3       1 1      0.0000
    36 OH1      1.5283  -3.1682   1.8825   H         1 1      0.0000
    37 H22      0.8824  -2.0268  -0.0527   H         1 1      0.0000
    38 C16      2.6257   2.0014  -2.0791   C.3       1 1      0.0000
    39 H16C     2.4967   0.9289  -2.2094   H         1 1      0.0000
    40 H16A     2.2371   2.4996  -2.9648   H         1 1      0.0000
    41 H16B     3.6917   2.2091  -2.0137   H         1 1      0.0000
@<TRIPOS>BOND
     1     1     2   ar
     2     1     6   ar
     3     1    29    1
     4     2     3   ar
     5     2     7    1
     6     3     4   ar
     7     3    30    1
     8     4     5   ar
     9     4     8    1
    10     5     6   ar
    11     5     9    1
    12     6    10    1
    13     8    11    1
    14     8    12    1
    15     8    28    1
    16    11    13    1
    17    11    26    1
    18    11    27    1
    19    13    14    1
    20    14    15    1
    21    14    16    1
    22    14    31    1
    23    16    17    1
    24    16    20    2
    25    17    18    1
    26    17    19    1
    27    17    32    1
    28    20    21    1
    29    20    22    1
    30    22    23    1
    31    22    24    1
    32    22    25    1
    33    32    33    1
    34    32    34    1
    35    13    35    1
    36    35    36    1
    37    13    37    1
    38    32    38    1
    39    38    39    1
    40    38    40    1
    41    38    41    1
@<TRIPOS>SUBSTRUCTURE
     1 1           1 GROUP             0 ****  ****    0  
@<TRIPOS>MOLECULE
Molecule Name_00001_00356
    41    41     1     0     0
SMALL
NO_CHARGES
****
Generated from the CSD

@<TRIPOS>ATOM
     1 C5      -3.7440  -1.2190   1.2786   C.ar      1 1      0.0000
     2 C4      -2.7889  -0.3947   1.8333   C.ar      1 1      0.0000
     3 C3      -2.1564   0.5597   1.0542   C.ar      1 1      0.0000
     4 C8      -2.4711   0.7028  -0.2885   C.ar      1 1      0.0000
     5 C7      -3.4329  -0.1339  -0.8334   C.ar      1 1      0.0000
     6 C6      -4.0660  -1.0887  -0.0551   C.ar      1 1      0.0000
     7 H4      -2.5318  -0.4938   2.8827   H         1 1      0.0000
     8 C9      -1.7792   1.7411  -1.1382   C.3       1 1      0.0000
     9 H7      -3.6929  -0.0396  -1.8825   H         1 1      0.0000
    10 H6      -4.8170  -1.7355  -0.4963   H         1 1      0.0000
    11 C10     -0.4718   1.2416  -1.7499   C.3       1 1      0.0000
    12 H9A     -2.4558   2.0495  -1.9447   H         1 1      0.0000
    13 C11      0.6609   1.0077  -0.7634   C.3       1 1      0.0000
    14 C12      1.9193   0.4935  -1.4539   C.3       1 1      0.0000
    15 H12A     2.4844   1.3460  -1.8504   H         1 1      0.0000
    16 C13      2.8049  -0.2961  -0.5385   C.2       1 1      0.0000
    17 C14      3.5247   0.4522   0.5431   C.3       1 1      0.0000
    18 H14B     3.7539   1.4617   0.1802   H         1 1      0.0000
    19 H14A     4.4777  -0.0477   0.7551   H         1 1      0.0000
    20 N        2.9255  -1.6014  -0.6764   N.pl3     1 1      0.0000
    21 HN       2.3302  -2.0409  -1.3783   H         1 1      0.0000
    22 C        3.7164  -2.4948   0.1574   C.3       1 1      0.0000
    23 H1A      3.2260  -3.4604   0.2612   H         1 1      0.0000
    24 H1C      4.6995  -2.6592  -0.2787   H         1 1      0.0000
    25 H1B      3.8532  -2.0755   1.1519   H         1 1      0.0000
    26 H10A    -0.6737   0.2991  -2.2737   H         1 1      0.0000
    27 H10B    -0.1361   1.9738  -2.4947   H         1 1      0.0000
    28 H9B     -1.5704   2.6241  -0.5217   H         1 1      0.0000
    29 H5      -4.2399  -1.9667   1.8888   H         1 1      0.0000
    30 H3      -1.4054   1.2034   1.5000   H         1 1      0.0000
    31 H12B     1.6290  -0.1382  -2.3025   H         1 1      0.0000
    32 C15      2.7298   0.5652   1.8307   C.3       1 1      0.0000
    33 H15A     2.5066  -0.4415   2.2053   H         1 1      0.0000
    34 H15C     1.7750   1.0634   1.6217   H         1 1      0.0000
    35 OH       0.9608   2.2382  -0.0988   O.3       1 1      0.0000
    36 OH1      0.1723   2.5345   0.4194   H         1 1      0.0000
    37 H22      0.3364   0.2667  -0.0164   H         1 1      0.0000
    38 C16      3.4694   1.3383   2.8980   C.3       1 1      0.0000
    39 H16C     3.6853   2.3501   2.5614   H         1 1      0.0000
    40 H16A     2.8766   1.4030   3.8080   H         1 1      0.0000
    41 H16B     4.4125   0.8536   3.1415   H         1 1      0.0000
@<TRIPOS>BOND
     1     1     2   ar
     2     1     6   ar
     3     1    29    1
     4     2     3   ar
     5     2     7    1
     6     3     4   ar
     7     3    30    1
     8     4     5   ar
     9     4     8    1
    10     5     6   ar
    11     5     9    1
    12     6    10    1
    13     8    11    1
    14     8    12    1
    15     8    28    1
    16    11    13    1
    17    11    26    1
    18    11    27    1
    19    13    14    1
    20    14    15    1
    21    14    16    1
    22    14    31    1
    23    16    17    1
    24    16    20    2
    25    17    18    1
    26    17    19    1
    27    17    32    1
    28    20    21    1
    29    20    22    1
    30    22    23    1
    31    22    24    1
    32    22    25    1
    33    32    33    1
    34    32    34    1
    35    13    35    1
    36    35    36    1
    37    13    37    1
    38    32    38    1
    39    38    39    1
    40    38    40    1
    41    38    41    1
@<TRIPOS>SUBSTRUCTURE
     1 1           1 GROUP             0 ****  ****    0  
@<TRIPOS>MOLECULE
Molecule Name_00001_00357
    41    41     1     0     0
SMALL
NO_CHARGES
****
Generated from the CSD

@<TRIPOS>ATOM
     1 C5      -4.4515   0.9157  -1.0508   C.ar      1 1      0.0000
     2 C4      -3.3450   0.5338  -1.7782   C.ar      1 1      0.0000
     3 C3      -2.2707  -0.0690  -1.1452   C.ar      1 1      0.0000
     4 C8      -2.2892  -0.2982   0.2220   C.ar      1 1      0.0000
     5 C7      -3.4083   0.0923   0.9412   C.ar      1 1      0.0000
     6 C6      -4.4831   0.6951   0.3092   C.ar      1 1      0.0000
     7 H4      -3.3153   0.7057  -2.8491   H         1 1      0.0000
     8 C9      -1.1167  -0.9523   0.9120   C.3       1 1      0.0000
     9 H7      -3.4425  -0.0765   2.0124   H         1 1      0.0000
    10 H6      -5.3519   0.9944   0.8861   H         1 1      0.0000
    11 C10     -0.0410   0.0436   1.3411   C.3       1 1      0.0000
    12 H9A     -1.4790  -1.4897   1.7970   H         1 1      0.0000
    13 C11      1.1644  -0.5620   2.0420   C.3       1 1      0.0000
    14 C12      2.0248  -1.3820   1.0869   C.3       1 1      0.0000
    15 H12A     1.4403  -2.2347   0.7201   H         1 1      0.0000
    16 C13      2.5152  -0.5863  -0.0844   C.2       1 1      0.0000
    17 C14      3.6232   0.3936   0.1600   C.3       1 1      0.0000
    18 H14B     4.4401   0.1837  -0.5414   H         1 1      0.0000
    19 H14A     4.0137   0.2513   1.1751   H         1 1      0.0000
    20 N        1.9973  -0.7619  -1.2838   N.pl3     1 1      0.0000
    21 HN       1.3132  -1.5124  -1.3777   H         1 1      0.0000
    22 C        2.3978  -0.0894  -2.5111   C.3       1 1      0.0000
    23 H1A      2.3085  -0.7585  -3.3643   H         1 1      0.0000
    24 H1C      1.7711   0.7806  -2.6959   H         1 1      0.0000
    25 H1B      3.4312   0.2450  -2.4493   H         1 1      0.0000
    26 H10A     0.3102   0.5777   0.4496   H         1 1      0.0000
    27 H10B    -0.4989   0.7792   2.0140   H         1 1      0.0000
    28 H9B     -0.6702  -1.6896   0.2334   H         1 1      0.0000
    29 H5      -5.2935   1.3877  -1.5464   H         1 1      0.0000
    30 H3      -1.4039  -0.3655  -1.7266   H         1 1      0.0000
    31 H12B     2.8878  -1.7799   1.6348   H         1 1      0.0000
    32 C15      3.1970   1.8406  -0.0062   C.3       1 1      0.0000
    33 H15A     2.3785   2.0569   0.6914   H         1 1      0.0000
    34 H15C     2.8166   1.9890  -1.0244   H         1 1      0.0000
    35 OH       1.9561   0.4907   2.5994   O.3       1 1      0.0000
    36 OH1      1.4101   1.0119   3.2383   H         1 1      0.0000
    37 H22      0.8132  -1.2157   2.8554   H         1 1      0.0000
    38 C16      4.3310   2.8073   0.2455   C.3       1 1      0.0000
    39 H16C     5.1502   2.6298  -0.4482   H         1 1      0.0000
    40 H16A     3.9968   3.8350   0.1195   H         1 1      0.0000
    41 H16B     4.7142   2.6971   1.2578   H         1 1      0.0000
@<TRIPOS>BOND
     1     1     2   ar
     2     1     6   ar
     3     1    29    1
     4     2     3   ar
     5     2     7    1
     6     3     4   ar
     7     3    30    1
     8     4     5   ar
     9     4     8    1
    10     5     6   ar
    11     5     9    1
    12     6    10    1
    13     8    11    1
    14     8    12    1
    15     8    28    1
    16    11    13    1
    17    11    26    1
    18    11    27    1
    19    13    14    1
    20    14    15    1
    21    14    16    1
    22    14    31    1
    23    16    17    1
    24    16    20    2
    25    17    18    1
    26    17    19    1
    27    17    32    1
    28    20    21    1
    29    20    22    1
    30    22    23    1
    31    22    24    1
    32    22    25    1
    33    32    33    1
    34    32    34    1
    35    13    35    1
    36    35    36    1
    37    13    37    1
    38    32    38    1
    39    38    39    1
    40    38    40    1
    41    38    41    1
@<TRIPOS>SUBSTRUCTURE
     1 1           1 GROUP             0 ****  ****    0  
@<TRIPOS>MOLECULE
Molecule Name_00001_00358
    41    41     1     0     0
SMALL
NO_CHARGES
****
Generated from the CSD

@<TRIPOS>ATOM
     1 C5      -4.2938   1.8270   0.0711   C.ar      1 1      0.0000
     2 C4      -3.1951   2.0246  -0.7372   C.ar      1 1      0.0000
     3 C3      -2.1840   1.0792  -0.7799   C.ar      1 1      0.0000
     4 C8      -2.2585  -0.0754  -0.0161   C.ar      1 1      0.0000
     5 C7      -3.3688  -0.2604   0.7934   C.ar      1 1      0.0000
     6 C6      -4.3805   0.6843   0.8367   C.ar      1 1      0.0000
     7 H4      -3.1222   2.9228  -1.3415   H         1 1      0.0000
     8 C9      -1.1545  -1.1041  -0.0604   C.3       1 1      0.0000
     9 H7      -3.4460  -1.1564   1.4003   H         1 1      0.0000
    10 H6      -5.2433   0.5246   1.4749   H         1 1      0.0000
    11 C10     -0.0261  -0.8162   0.9279   C.3       1 1      0.0000
    12 H9A     -1.5789  -2.0914   0.1601   H         1 1      0.0000
    13 C11      1.1137  -1.8222   0.9254   C.3       1 1      0.0000
    14 C12      1.9149  -1.7705  -0.3707   C.3       1 1      0.0000
    15 H12A     1.2223  -1.7880  -1.2213   H         1 1      0.0000
    16 C13      2.7814  -0.5520  -0.4718   C.2       1 1      0.0000
    17 C14      2.1155   0.7427  -0.8297   C.3       1 1      0.0000
    18 H14B     1.0607   0.5451  -1.0570   H         1 1      0.0000
    19 H14A     2.5793   1.1484  -1.7371   H         1 1      0.0000
    20 N        4.0762  -0.6233  -0.2353   N.pl3     1 1      0.0000
    21 HN       4.4295  -1.5226   0.0910   H         1 1      0.0000
    22 C        5.0270   0.4787  -0.2608   C.3       1 1      0.0000
    23 H1A      5.2221   0.8430   0.7456   H         1 1      0.0000
    24 H1C      5.9726   0.1617  -0.6955   H         1 1      0.0000
    25 H1B      4.6432   1.3069  -0.8527   H         1 1      0.0000
    26 H10A     0.3872   0.1743   0.7010   H         1 1      0.0000
    27 H10B    -0.4519  -0.7785   1.9382   H         1 1      0.0000
    28 H9B     -0.7400  -1.1380  -1.0755   H         1 1      0.0000
    29 H5      -5.0863   2.5673   0.1046   H         1 1      0.0000
    30 H3      -1.3228   1.2442  -1.4190   H         1 1      0.0000
    31 H12B     2.5470  -2.6646  -0.4366   H         1 1      0.0000
    32 C15      2.1907   1.7847   0.2709   C.3       1 1      0.0000
    33 H15A     3.2431   2.0197   0.4725   H         1 1      0.0000
    34 H15C     1.7589   1.3693   1.1898   H         1 1      0.0000
    35 OH       1.9838  -1.5424   2.0256   O.3       1 1      0.0000
    36 OH1      1.4750  -1.5980   2.8718   H         1 1      0.0000
    37 H22      0.6970  -2.8341   1.0464   H         1 1      0.0000
    38 C16      1.4592   3.0569  -0.0898   C.3       1 1      0.0000
    39 H16C     0.4036   2.8589  -0.2633   H         1 1      0.0000
    40 H16A     1.5396   3.7884   0.7115   H         1 1      0.0000
    41 H16B     1.8745   3.4975  -0.9938   H         1 1      0.0000
@<TRIPOS>BOND
     1     1     2   ar
     2     1     6   ar
     3     1    29    1
     4     2     3   ar
     5     2     7    1
     6     3     4   ar
     7     3    30    1
     8     4     5   ar
     9     4     8    1
    10     5     6   ar
    11     5     9    1
    12     6    10    1
    13     8    11    1
    14     8    12    1
    15     8    28    1
    16    11    13    1
    17    11    26    1
    18    11    27    1
    19    13    14    1
    20    14    15    1
    21    14    16    1
    22    14    31    1
    23    16    17    1
    24    16    20    2
    25    17    18    1
    26    17    19    1
    27    17    32    1
    28    20    21    1
    29    20    22    1
    30    22    23    1
    31    22    24    1
    32    22    25    1
    33    32    33    1
    34    32    34    1
    35    13    35    1
    36    35    36    1
    37    13    37    1
    38    32    38    1
    39    38    39    1
    40    38    40    1
    41    38    41    1
@<TRIPOS>SUBSTRUCTURE
     1 1           1 GROUP             0 ****  ****    0  
@<TRIPOS>MOLECULE
Molecule Name_00001_00359
    41    41     1     0     0
SMALL
NO_CHARGES
****
Generated from the CSD

@<TRIPOS>ATOM
     1 C5      -5.5543   0.6138  -0.2108   C.ar      1 1      0.0000
     2 C4      -4.9052   0.3552   0.9771   C.ar      1 1      0.0000
     3 C3      -3.5718  -0.0191   0.9741   C.ar      1 1      0.0000
     4 C8      -2.8705  -0.1389  -0.2159   C.ar      1 1      0.0000
     5 C7      -3.5365   0.1230  -1.4033   C.ar      1 1      0.0000
     6 C6      -4.8698   0.4975  -1.4013   C.ar      1 1      0.0000
     7 H4      -5.4400   0.4451   1.9169   H         1 1      0.0000
     8 C9      -1.4181  -0.5502  -0.2190   C.3       1 1      0.0000
     9 H7      -3.0065   0.0336  -2.3458   H         1 1      0.0000
    10 H6      -5.3767   0.6997  -2.3391   H         1 1      0.0000
    11 C10     -0.6486  -0.0445   0.9997   C.3       1 1      0.0000
    12 H9A     -1.3582  -1.6451  -0.2498   H         1 1      0.0000
    13 C11      0.8252  -0.4155   1.0389   C.3       1 1      0.0000
    14 C12      1.6288   0.3355  -0.0170   C.3       1 1      0.0000
    15 H12A     1.5866   1.4104   0.1977   H         1 1      0.0000
    16 C13      3.0630  -0.0953  -0.0731   C.2       1 1      0.0000
    17 C14      4.0791   0.7966   0.5747   C.3       1 1      0.0000
    18 H14B     4.9558   0.1944   0.8435   H         1 1      0.0000
    19 H14A     3.6612   1.2056   1.5027   H         1 1      0.0000
    20 N        3.4054  -1.2264  -0.6569   N.pl3     1 1      0.0000
    21 HN       2.6420  -1.8150  -0.9900   H         1 1      0.0000
    22 C        4.7466  -1.7840  -0.7538   C.3       1 1      0.0000
    23 H1A      4.7064  -2.8515  -0.9602   H         1 1      0.0000
    24 H1C      5.3061  -1.3049  -1.5545   H         1 1      0.0000
    25 H1B      5.2938  -1.6387   0.1752   H         1 1      0.0000
    26 H10A    -0.7303   1.0490   1.0302   H         1 1      0.0000
    27 H10B    -1.1294  -0.4420   1.9021   H         1 1      0.0000
    28 H9B     -0.9406  -0.1640  -1.1280   H         1 1      0.0000
    29 H5      -6.5988   0.9074  -0.2088   H         1 1      0.0000
    30 H3      -3.0699  -0.2211   1.9145   H         1 1      0.0000
    31 H12B     1.1685   0.1732  -0.9995   H         1 1      0.0000
    32 C15      4.5281   1.9436  -0.3116   C.3       1 1      0.0000
    33 H15A     3.6555   2.5491  -0.5860   H         1 1      0.0000
    34 H15C     4.9572   1.5375  -1.2359   H         1 1      0.0000
    35 OH       1.3486  -0.1064   2.3336   O.3       1 1      0.0000
    36 OH1      0.8468  -0.6092   3.0215   H         1 1      0.0000
    37 H22      0.9258  -1.4973   0.8605   H         1 1      0.0000
    38 C16      5.5513   2.8268   0.3641   C.3       1 1      0.0000
    39 H16C     6.4390   2.2560   0.6285   H         1 1      0.0000
    40 H16A     5.8541   3.6390  -0.2935   H         1 1      0.0000
    41 H16B     5.1443   3.2617   1.2745   H         1 1      0.0000
@<TRIPOS>BOND
     1     1     2   ar
     2     1     6   ar
     3     1    29    1
     4     2     3   ar
     5     2     7    1
     6     3     4   ar
     7     3    30    1
     8     4     5   ar
     9     4     8    1
    10     5     6   ar
    11     5     9    1
    12     6    10    1
    13     8    11    1
    14     8    12    1
    15     8    28    1
    16    11    13    1
    17    11    26    1
    18    11    27    1
    19    13    14    1
    20    14    15    1
    21    14    16    1
    22    14    31    1
    23    16    17    1
    24    16    20    2
    25    17    18    1
    26    17    19    1
    27    17    32    1
    28    20    21    1
    29    20    22    1
    30    22    23    1
    31    22    24    1
    32    22    25    1
    33    32    33    1
    34    32    34    1
    35    13    35    1
    36    35    36    1
    37    13    37    1
    38    32    38    1
    39    38    39    1
    40    38    40    1
    41    38    41    1
@<TRIPOS>SUBSTRUCTURE
     1 1           1 GROUP             0 ****  ****    0  
@<TRIPOS>MOLECULE
Molecule Name_00001_00360
    41    41     1     0     0
SMALL
NO_CHARGES
****
Generated from the CSD

@<TRIPOS>ATOM
     1 C5      -4.4449  -1.0212  -1.0187   C.ar      1 1      0.0000
     2 C4      -4.8716   0.1772  -0.4885   C.ar      1 1      0.0000
     3 C3      -4.0392   0.9042   0.3461   C.ar      1 1      0.0000
     4 C8      -2.7701   0.4433   0.6604   C.ar      1 1      0.0000
     5 C7      -2.3544  -0.7644   0.1209   C.ar      1 1      0.0000
     6 C6      -3.1861  -1.4922  -0.7137   C.ar      1 1      0.0000
     7 H4      -5.8619   0.5518  -0.7254   H         1 1      0.0000
     8 C9      -1.8643   1.2345   1.5728   C.3       1 1      0.0000
     9 H7      -1.3654  -1.1439   0.3555   H         1 1      0.0000
    10 H6      -2.8458  -2.4353  -1.1285   H         1 1      0.0000
    11 C10     -0.6216   1.7720   0.8658   C.3       1 1      0.0000
    12 H9A     -2.4288   2.0766   1.9919   H         1 1      0.0000
    13 C11      0.4126   0.7260   0.4822   C.3       1 1      0.0000
    14 C12      1.6587   1.3561  -0.1300   C.3       1 1      0.0000
    15 H12A     2.1133   2.0354   0.6017   H         1 1      0.0000
    16 C13      2.6772   0.3414  -0.5526   C.2       1 1      0.0000
    17 C14      4.1227   0.7207  -0.4332   C.3       1 1      0.0000
    18 H14B     4.2381   1.7684  -0.7373   H         1 1      0.0000
    19 H14A     4.7150   0.1084  -1.1242   H         1 1      0.0000
    20 N        2.3059  -0.8437  -0.9943   N.pl3     1 1      0.0000
    21 HN       1.3079  -1.0506  -0.9559   H         1 1      0.0000
    22 C        3.1808  -1.9333  -1.4022   C.3       1 1      0.0000
    23 H1A      2.7455  -2.8957  -1.1415   H         1 1      0.0000
    24 H1C      3.3430  -1.9151  -2.4779   H         1 1      0.0000
    25 H1B      4.1492  -1.8555  -0.9126   H         1 1      0.0000
    26 H10A    -0.9409   2.2924  -0.0456   H         1 1      0.0000
    27 H10B    -0.1416   2.5087   1.5218   H         1 1      0.0000
    28 H9B     -1.5516   0.5942   2.4068   H         1 1      0.0000
    29 H5      -5.0966  -1.5910  -1.6728   H         1 1      0.0000
    30 H3      -4.3846   1.8463   0.7590   H         1 1      0.0000
    31 H12B     1.3660   1.9530  -1.0026   H         1 1      0.0000
    32 C15      4.6761   0.5561   0.9701   C.3       1 1      0.0000
    33 H15A     4.5621  -0.4895   1.2815   H         1 1      0.0000
    34 H15C     4.0931   1.1765   1.6619   H         1 1      0.0000
    35 OH       0.7856  -0.0101   1.6505   O.3       1 1      0.0000
    36 OH1      0.0141  -0.5421   1.9662   H         1 1      0.0000
    37 H22     -0.0332   0.0347  -0.2496   H         1 1      0.0000
    38 C16      6.1335   0.9448   1.0635   C.3       1 1      0.0000
    39 H16C     6.2739   1.9860   0.7807   H         1 1      0.0000
    40 H16A     6.5025   0.8167   2.0790   H         1 1      0.0000
    41 H16B     6.7400   0.3292   0.4024   H         1 1      0.0000
@<TRIPOS>BOND
     1     1     2   ar
     2     1     6   ar
     3     1    29    1
     4     2     3   ar
     5     2     7    1
     6     3     4   ar
     7     3    30    1
     8     4     5   ar
     9     4     8    1
    10     5     6   ar
    11     5     9    1
    12     6    10    1
    13     8    11    1
    14     8    12    1
    15     8    28    1
    16    11    13    1
    17    11    26    1
    18    11    27    1
    19    13    14    1
    20    14    15    1
    21    14    16    1
    22    14    31    1
    23    16    17    1
    24    16    20    2
    25    17    18    1
    26    17    19    1
    27    17    32    1
    28    20    21    1
    29    20    22    1
    30    22    23    1
    31    22    24    1
    32    22    25    1
    33    32    33    1
    34    32    34    1
    35    13    35    1
    36    35    36    1
    37    13    37    1
    38    32    38    1
    39    38    39    1
    40    38    40    1
    41    38    41    1
@<TRIPOS>SUBSTRUCTURE
     1 1           1 GROUP             0 ****  ****    0  
@<TRIPOS>MOLECULE
Molecule Name_00001_00361
    41    41     1     0     0
SMALL
NO_CHARGES
****
Generated from the CSD

@<TRIPOS>ATOM
     1 C5      -4.4046  -0.0546  -1.5248   C.ar      1 1      0.0000
     2 C4      -4.8244   0.6632  -0.4258   C.ar      1 1      0.0000
     3 C3      -4.0355   0.7195   0.7110   C.ar      1 1      0.0000
     4 C8      -2.8171   0.0600   0.7634   C.ar      1 1      0.0000
     5 C7      -2.4080  -0.6592  -0.3490   C.ar      1 1      0.0000
     6 C6      -3.1961  -0.7161  -1.4863   C.ar      1 1      0.0000
     7 H4      -5.7752   1.1853  -0.4512   H         1 1      0.0000
     8 C9      -1.9590   0.1189   2.0039   C.3       1 1      0.0000
     9 H7      -1.4585  -1.1839  -0.3283   H         1 1      0.0000
    10 H6      -2.8615  -1.2828  -2.3490   H         1 1      0.0000
    11 C10     -0.6404   0.8588   1.7870   C.3       1 1      0.0000
    12 H9A     -2.5214   0.6185   2.8024   H         1 1      0.0000
    13 C11      0.3782   0.1336   0.9225   C.3       1 1      0.0000
    14 C12      1.6961   0.8956   0.8362   C.3       1 1      0.0000
    15 H12A     2.1155   1.0015   1.8443   H         1 1      0.0000
    16 C13      2.7036   0.2194  -0.0432   C.2       1 1      0.0000
    17 C14      4.1485   0.3451   0.3366   C.3       1 1      0.0000
    18 H14B     4.6991  -0.5037  -0.0875   H         1 1      0.0000
    19 H14A     4.2413   0.2877   1.4280   H         1 1      0.0000
    20 N        2.3219  -0.4723  -1.0983   N.pl3     1 1      0.0000
    21 HN       1.3166  -0.5823  -1.2301   H         1 1      0.0000
    22 C        3.1822  -1.2064  -2.0148   C.3       1 1      0.0000
    23 H1A      2.6015  -1.9070  -2.6113   H         1 1      0.0000
    24 H1C      3.6924  -0.5257  -2.6931   H         1 1      0.0000
    25 H1B      3.9367  -1.7695  -1.4697   H         1 1      0.0000
    26 H10A    -0.8608   1.8276   1.3218   H         1 1      0.0000
    27 H10B    -0.1870   1.0528   2.7669   H         1 1      0.0000
    28 H9B     -1.7438  -0.9039   2.3369   H         1 1      0.0000
    29 H5      -5.0222  -0.0987  -2.4158   H         1 1      0.0000
    30 H3      -4.3751   1.2868   1.5713   H         1 1      0.0000
    31 H12B     1.5021   1.9030   0.4479   H         1 1      0.0000
    32 C15      4.7896   1.6330  -0.1460   C.3       1 1      0.0000
    33 H15A     4.2423   2.4864   0.2730   H         1 1      0.0000
    34 H15C     4.7087   1.6878  -1.2387   H         1 1      0.0000
    35 OH       0.6216  -1.1619   1.4777   O.3       1 1      0.0000
    36 OH1     -0.1701  -1.7369   1.3343   H         1 1      0.0000
    37 H22     -0.0330   0.0171  -0.0922   H         1 1      0.0000
    38 C16      6.2446   1.7351   0.2493   C.3       1 1      0.0000
    39 H16C     6.8174   0.9114  -0.1716   H         1 1      0.0000
    40 H16A     6.6772   2.6668  -0.1093   H         1 1      0.0000
    41 H16B     6.3533   1.7054   1.3314   H         1 1      0.0000
@<TRIPOS>BOND
     1     1     2   ar
     2     1     6   ar
     3     1    29    1
     4     2     3   ar
     5     2     7    1
     6     3     4   ar
     7     3    30    1
     8     4     5   ar
     9     4     8    1
    10     5     6   ar
    11     5     9    1
    12     6    10    1
    13     8    11    1
    14     8    12    1
    15     8    28    1
    16    11    13    1
    17    11    26    1
    18    11    27    1
    19    13    14    1
    20    14    15    1
    21    14    16    1
    22    14    31    1
    23    16    17    1
    24    16    20    2
    25    17    18    1
    26    17    19    1
    27    17    32    1
    28    20    21    1
    29    20    22    1
    30    22    23    1
    31    22    24    1
    32    22    25    1
    33    32    33    1
    34    32    34    1
    35    13    35    1
    36    35    36    1
    37    13    37    1
    38    32    38    1
    39    38    39    1
    40    38    40    1
    41    38    41    1
@<TRIPOS>SUBSTRUCTURE
     1 1           1 GROUP             0 ****  ****    0  
@<TRIPOS>MOLECULE
Molecule Name_00001_00362
    41    41     1     0     0
SMALL
NO_CHARGES
****
Generated from the CSD

@<TRIPOS>ATOM
     1 C5      -4.0728   1.3493  -1.1048   C.ar      1 1      0.0000
     2 C4      -4.5238   1.1440   0.1812   C.ar      1 1      0.0000
     3 C3      -3.8207   0.3168   1.0411   C.ar      1 1      0.0000
     4 C8      -2.6581  -0.3147   0.6268   C.ar      1 1      0.0000
     5 C7      -2.2169  -0.1001  -0.6698   C.ar      1 1      0.0000
     6 C6      -2.9192   0.7269  -1.5305   C.ar      1 1      0.0000
     7 H4      -5.4317   1.6316   0.5208   H         1 1      0.0000
     8 C9      -1.8938  -1.2189   1.5634   C.3       1 1      0.0000
     9 H7      -1.3101  -0.5861  -1.0146   H         1 1      0.0000
    10 H6      -2.5605   0.8852  -2.5422   H         1 1      0.0000
    11 C10     -0.5148  -0.6746   1.9309   C.3       1 1      0.0000
    12 H9A     -2.4790  -1.3575   2.4809   H         1 1      0.0000
    13 C11      0.5136  -0.6980   0.8116   C.3       1 1      0.0000
    14 C12      1.8836  -0.2283   1.2884   C.3       1 1      0.0000
    15 H12A     2.2724  -0.9443   2.0230   H         1 1      0.0000
    16 C13      2.8729  -0.0890   0.1714   C.2       1 1      0.0000
    17 C14      3.9385   0.9554   0.3173   C.3       1 1      0.0000
    18 H14B     4.7985   0.6699  -0.3010   H         1 1      0.0000
    19 H14A     4.2759   0.9839   1.3606   H         1 1      0.0000
    20 N        2.8105  -0.8723  -0.8868   N.pl3     1 1      0.0000
    21 HN       2.1117  -1.6148  -0.8619   H         1 1      0.0000
    22 C        3.7205  -0.8735  -2.0230   C.3       1 1      0.0000
    23 H1A      3.5894  -1.7729  -2.6211   H         1 1      0.0000
    24 H1C      3.5396  -0.0121  -2.6625   H         1 1      0.0000
    25 H1B      4.7553  -0.8360  -1.6896   H         1 1      0.0000
    26 H10A    -0.6322   0.3620   2.2704   H         1 1      0.0000
    27 H10B    -0.1242  -1.2606   2.7719   H         1 1      0.0000
    28 H9B     -1.7753  -2.2021   1.0914   H         1 1      0.0000
    29 H5      -4.6232   1.9975  -1.7787   H         1 1      0.0000
    30 H3      -4.1842   0.1611   2.0515   H         1 1      0.0000
    31 H12B     1.7746   0.7403   1.7917   H         1 1      0.0000
    32 C15      3.4829   2.3439  -0.0918   C.3       1 1      0.0000
    33 H15A     2.6214   2.6352   0.5217   H         1 1      0.0000
    34 H15C     3.1556   2.3214  -1.1386   H         1 1      0.0000
    35 OH       0.6246  -2.0326   0.3094   O.3       1 1      0.0000
    36 OH1     -0.1829  -2.2562  -0.2160   H         1 1      0.0000
    37 H22      0.1729  -0.0368  -0.0001   H         1 1      0.0000
    38 C16      4.5744   3.3773   0.0645   C.3       1 1      0.0000
    39 H16C     5.4353   3.1251  -0.5511   H         1 1      0.0000
    40 H16A     4.2198   4.3612  -0.2355   H         1 1      0.0000
    41 H16B     4.9038   3.4369   1.0997   H         1 1      0.0000
@<TRIPOS>BOND
     1     1     2   ar
     2     1     6   ar
     3     1    29    1
     4     2     3   ar
     5     2     7    1
     6     3     4   ar
     7     3    30    1
     8     4     5   ar
     9     4     8    1
    10     5     6   ar
    11     5     9    1
    12     6    10    1
    13     8    11    1
    14     8    12    1
    15     8    28    1
    16    11    13    1
    17    11    26    1
    18    11    27    1
    19    13    14    1
    20    14    15    1
    21    14    16    1
    22    14    31    1
    23    16    17    1
    24    16    20    2
    25    17    18    1
    26    17    19    1
    27    17    32    1
    28    20    21    1
    29    20    22    1
    30    22    23    1
    31    22    24    1
    32    22    25    1
    33    32    33    1
    34    32    34    1
    35    13    35    1
    36    35    36    1
    37    13    37    1
    38    32    38    1
    39    38    39    1
    40    38    40    1
    41    38    41    1
@<TRIPOS>SUBSTRUCTURE
     1 1           1 GROUP             0 ****  ****    0  
@<TRIPOS>MOLECULE
Molecule Name_00001_00363
    41    41     1     0     0
SMALL
NO_CHARGES
****
Generated from the CSD

@<TRIPOS>ATOM
     1 C5      -5.5542  -0.1947   0.6355   C.ar      1 1      0.0000
     2 C4      -4.7259  -1.0241  -0.0894   C.ar      1 1      0.0000
     3 C3      -3.4310  -0.6303  -0.3829   C.ar      1 1      0.0000
     4 C8      -2.9476   0.5967   0.0450   C.ar      1 1      0.0000
     5 C7      -3.7922   1.4212   0.7722   C.ar      1 1      0.0000
     6 C6      -5.0872   1.0283   1.0662   C.ar      1 1      0.0000
     7 H4      -5.0892  -1.9877  -0.4310   H         1 1      0.0000
     8 C9      -1.5372   1.0269  -0.2780   C.3       1 1      0.0000
     9 H7      -3.4341   2.3863   1.1152   H         1 1      0.0000
    10 H6      -5.7357   1.6849   1.6369   H         1 1      0.0000
    11 C10     -0.5500  -0.1377  -0.3233   C.3       1 1      0.0000
    12 H9A     -1.5339   1.5356  -1.2499   H         1 1      0.0000
    13 C11      0.8904   0.2415  -0.6275   C.3       1 1      0.0000
    14 C12      1.8810  -0.7049   0.0417   C.3       1 1      0.0000
    15 H12A     1.7459  -1.7136  -0.3679   H         1 1      0.0000
    16 C13      3.3071  -0.2869  -0.1507   C.2       1 1      0.0000
    17 C14      3.7942   0.8934   0.6352   C.3       1 1      0.0000
    18 H14B     3.0020   1.6519   0.6587   H         1 1      0.0000
    19 H14A     4.6596   1.3343   0.1255   H         1 1      0.0000
    20 N        4.1000  -0.9496  -0.9689   N.pl3     1 1      0.0000
    21 HN       3.7133  -1.7932  -1.3921   H         1 1      0.0000
    22 C        5.5075  -0.6801  -1.2246   C.3       1 1      0.0000
    23 H1A      6.0522  -1.6058  -1.3977   H         1 1      0.0000
    24 H1C      5.6255  -0.0484  -2.1026   H         1 1      0.0000
    25 H1B      5.9638  -0.1714  -0.3781   H         1 1      0.0000
    26 H10A    -0.5748  -0.6492   0.6468   H         1 1      0.0000
    27 H10B    -0.8889  -0.8493  -1.0864   H         1 1      0.0000
    28 H9B     -1.2033   1.7487   0.4777   H         1 1      0.0000
    29 H5      -6.5686  -0.5030   0.8659   H         1 1      0.0000
    30 H3      -2.7870  -1.2901  -0.9547   H         1 1      0.0000
    31 H12B     1.6637  -0.7491   1.1161   H         1 1      0.0000
    32 C15      4.1837   0.5500   2.0611   C.3       1 1      0.0000
    33 H15A     4.9746  -0.2099   2.0449   H         1 1      0.0000
    34 H15C     3.3167   0.1194   2.5771   H         1 1      0.0000
    35 OH       1.0920   0.2061  -2.0431   O.3       1 1      0.0000
    36 OH1      0.4683   0.8360  -2.4815   H         1 1      0.0000
    37 H22      1.0745   1.2646  -0.2648   H         1 1      0.0000
    38 C16      4.6707   1.7557   2.8310   C.3       1 1      0.0000
    39 H16C     3.8971   2.5190   2.8821   H         1 1      0.0000
    40 H16A     4.9425   1.4800   3.8478   H         1 1      0.0000
    41 H16B     5.5455   2.1912   2.3527   H         1 1      0.0000
@<TRIPOS>BOND
     1     1     2   ar
     2     1     6   ar
     3     1    29    1
     4     2     3   ar
     5     2     7    1
     6     3     4   ar
     7     3    30    1
     8     4     5   ar
     9     4     8    1
    10     5     6   ar
    11     5     9    1
    12     6    10    1
    13     8    11    1
    14     8    12    1
    15     8    28    1
    16    11    13    1
    17    11    26    1
    18    11    27    1
    19    13    14    1
    20    14    15    1
    21    14    16    1
    22    14    31    1
    23    16    17    1
    24    16    20    2
    25    17    18    1
    26    17    19    1
    27    17    32    1
    28    20    21    1
    29    20    22    1
    30    22    23    1
    31    22    24    1
    32    22    25    1
    33    32    33    1
    34    32    34    1
    35    13    35    1
    36    35    36    1
    37    13    37    1
    38    32    38    1
    39    38    39    1
    40    38    40    1
    41    38    41    1
@<TRIPOS>SUBSTRUCTURE
     1 1           1 GROUP             0 ****  ****    0  
@<TRIPOS>MOLECULE
Molecule Name_00001_00364
    41    41     1     0     0
SMALL
NO_CHARGES
****
Generated from the CSD

@<TRIPOS>ATOM
     1 C5      -5.5679  -0.1674   0.2037   C.ar      1 1      0.0000
     2 C4      -4.7245  -0.4879  -0.8381   C.ar      1 1      0.0000
     3 C3      -3.3878  -0.1292  -0.7865   C.ar      1 1      0.0000
     4 C8      -2.8773   0.5534   0.3070   C.ar      1 1      0.0000
     5 C7      -3.7375   0.8703   1.3471   C.ar      1 1      0.0000
     6 C6      -5.0743   0.5121   1.2965   C.ar      1 1      0.0000
     7 H4      -5.1085  -1.0224  -1.7006   H         1 1      0.0000
     8 C9      -1.4210   0.9471   0.3614   C.3       1 1      0.0000
     9 H7      -3.3586   1.4056   2.2115   H         1 1      0.0000
    10 H6      -5.7345   0.7669   2.1189   H         1 1      0.0000
    11 C10     -0.5013  -0.0587  -0.3282   C.3       1 1      0.0000
    12 H9A     -1.2992   1.9274  -0.1155   H         1 1      0.0000
    13 C11      0.9802   0.2799  -0.2880   C.3       1 1      0.0000
    14 C12      1.8496  -0.9725  -0.2741   C.3       1 1      0.0000
    15 H12A     1.6568  -1.5528  -1.1849   H         1 1      0.0000
    16 C13      3.3138  -0.6644  -0.1922   C.2       1 1      0.0000
    17 C14      3.8568  -0.2335   1.1372   C.3       1 1      0.0000
    18 H14B     4.9016  -0.5593   1.2131   H         1 1      0.0000
    19 H14A     3.2954  -0.7335   1.9358   H         1 1      0.0000
    20 N        4.0896  -0.7881  -1.2506   N.pl3     1 1      0.0000
    21 HN       3.6559  -1.1742  -2.0891   H         1 1      0.0000
    22 C        5.5260  -0.5595  -1.3077   C.3       1 1      0.0000
    23 H1A      5.9573  -1.0334  -2.1869   H         1 1      0.0000
    24 H1C      5.7452   0.5052  -1.3550   H         1 1      0.0000
    25 H1B      6.0178  -0.9673  -0.4271   H         1 1      0.0000
    26 H10A    -0.6446  -1.0381   0.1447   H         1 1      0.0000
    27 H10B    -0.8080  -0.1452  -1.3779   H         1 1      0.0000
    28 H9B     -1.1180   1.0465   1.4110   H         1 1      0.0000
    29 H5      -6.6151  -0.4484   0.1638   H         1 1      0.0000
    30 H3      -2.7320  -0.3856  -1.6120   H         1 1      0.0000
    31 H12B     1.5670  -1.5947   0.5841   H         1 1      0.0000
    32 C15      3.7963   1.2668   1.3564   C.3       1 1      0.0000
    33 H15A     2.7519   1.5971   1.2976   H         1 1      0.0000
    34 H15C     4.3517   1.7702   0.5554   H         1 1      0.0000
    35 OH       1.3092   1.0659  -1.4368   O.3       1 1      0.0000
    36 OH1      0.7653   1.8919  -1.4389   H         1 1      0.0000
    37 H22      1.1875   0.8676   0.6197   H         1 1      0.0000
    38 C16      4.3713   1.6771   2.6923   C.3       1 1      0.0000
    39 H16C     5.4153   1.3809   2.7702   H         1 1      0.0000
    40 H16A     4.3146   2.7559   2.8217   H         1 1      0.0000
    41 H16B     3.8243   1.2087   3.5079   H         1 1      0.0000
@<TRIPOS>BOND
     1     1     2   ar
     2     1     6   ar
     3     1    29    1
     4     2     3   ar
     5     2     7    1
     6     3     4   ar
     7     3    30    1
     8     4     5   ar
     9     4     8    1
    10     5     6   ar
    11     5     9    1
    12     6    10    1
    13     8    11    1
    14     8    12    1
    15     8    28    1
    16    11    13    1
    17    11    26    1
    18    11    27    1
    19    13    14    1
    20    14    15    1
    21    14    16    1
    22    14    31    1
    23    16    17    1
    24    16    20    2
    25    17    18    1
    26    17    19    1
    27    17    32    1
    28    20    21    1
    29    20    22    1
    30    22    23    1
    31    22    24    1
    32    22    25    1
    33    32    33    1
    34    32    34    1
    35    13    35    1
    36    35    36    1
    37    13    37    1
    38    32    38    1
    39    38    39    1
    40    38    40    1
    41    38    41    1
@<TRIPOS>SUBSTRUCTURE
     1 1           1 GROUP             0 ****  ****    0  
@<TRIPOS>MOLECULE
Molecule Name_00001_00365
    41    41     1     0     0
SMALL
NO_CHARGES
****
Generated from the CSD

@<TRIPOS>ATOM
     1 C5      -5.3481   1.1429   0.5510   C.ar      1 1      0.0000
     2 C4      -4.7023   1.5990  -0.5779   C.ar      1 1      0.0000
     3 C3      -3.5029   1.0291  -0.9711   C.ar      1 1      0.0000
     4 C8      -2.9345  -0.0039  -0.2418   C.ar      1 1      0.0000
     5 C7      -3.5945  -0.4518   0.8921   C.ar      1 1      0.0000
     6 C6      -4.7940   0.1174   1.2862   C.ar      1 1      0.0000
     7 H4      -5.1345   2.4064  -1.1597   H         1 1      0.0000
     8 C9      -1.6255  -0.6227  -0.6691   C.3       1 1      0.0000
     9 H7      -3.1661  -1.2583   1.4780   H         1 1      0.0000
    10 H6      -5.2985  -0.2449   2.1759   H         1 1      0.0000
    11 C10     -0.5090  -0.4324   0.3558   C.3       1 1      0.0000
    12 H9A     -1.7770  -1.6961  -0.8366   H         1 1      0.0000
    13 C11      0.8963  -0.7084  -0.1539   C.3       1 1      0.0000
    14 C12      1.9483  -0.4767   0.9252   C.3       1 1      0.0000
    15 H12A     1.9603  -1.3377   1.6048   H         1 1      0.0000
    16 C13      3.3238  -0.2778   0.3647   C.2       1 1      0.0000
    17 C14      3.6163   1.0326  -0.3023   C.3       1 1      0.0000
    18 H14B     2.7395   1.3321  -0.8897   H         1 1      0.0000
    19 H14A     4.4534   0.9040  -0.9993   H         1 1      0.0000
    20 N        4.2400  -1.2190   0.4753   N.pl3     1 1      0.0000
    21 HN       3.9840  -2.0400   1.0235   H         1 1      0.0000
    22 C        5.6187  -1.1493   0.0133   C.3       1 1      0.0000
    23 H1A      6.2795  -1.6878   0.6893   H         1 1      0.0000
    24 H1C      5.7158  -1.5890  -0.9771   H         1 1      0.0000
    25 H1B      5.9568  -0.1167  -0.0402   H         1 1      0.0000
    26 H10A    -0.5474   0.6017   0.7199   H         1 1      0.0000
    27 H10B    -0.7044  -1.0953   1.2077   H         1 1      0.0000
    28 H9B     -1.3151  -0.1767  -1.6220   H         1 1      0.0000
    29 H5      -6.2879   1.5889   0.8593   H         1 1      0.0000
    30 H3      -3.0019   1.3956  -1.8610   H         1 1      0.0000
    31 H12B     1.6704   0.4076   1.5118   H         1 1      0.0000
    32 C15      3.9532   2.1448   0.6735   C.3       1 1      0.0000
    33 H15A     4.8284   1.8508   1.2658   H         1 1      0.0000
    34 H15C     3.1129   2.2837   1.3649   H         1 1      0.0000
    35 OH       0.9720  -2.0659  -0.5982   O.3       1 1      0.0000
    36 OH1      0.3111  -2.2151  -1.3185   H         1 1      0.0000
    37 H22      1.1052  -0.0409  -1.0042   H         1 1      0.0000
    38 C16      4.2436   3.4538  -0.0235   C.3       1 1      0.0000
    39 H16C     3.3829   3.7816  -0.6027   H         1 1      0.0000
    40 H16A     4.4816   4.2312   0.6995   H         1 1      0.0000
    41 H16B     5.0887   3.3509  -0.7009   H         1 1      0.0000
@<TRIPOS>BOND
     1     1     2   ar
     2     1     6   ar
     3     1    29    1
     4     2     3   ar
     5     2     7    1
     6     3     4   ar
     7     3    30    1
     8     4     5   ar
     9     4     8    1
    10     5     6   ar
    11     5     9    1
    12     6    10    1
    13     8    11    1
    14     8    12    1
    15     8    28    1
    16    11    13    1
    17    11    26    1
    18    11    27    1
    19    13    14    1
    20    14    15    1
    21    14    16    1
    22    14    31    1
    23    16    17    1
    24    16    20    2
    25    17    18    1
    26    17    19    1
    27    17    32    1
    28    20    21    1
    29    20    22    1
    30    22    23    1
    31    22    24    1
    32    22    25    1
    33    32    33    1
    34    32    34    1
    35    13    35    1
    36    35    36    1
    37    13    37    1
    38    32    38    1
    39    38    39    1
    40    38    40    1
    41    38    41    1
@<TRIPOS>SUBSTRUCTURE
     1 1           1 GROUP             0 ****  ****    0  
@<TRIPOS>MOLECULE
Molecule Name_00001_00366
    41    41     1     0     0
SMALL
NO_CHARGES
****
Generated from the CSD

@<TRIPOS>ATOM
     1 C5      -5.6011   0.1413  -0.6632   C.ar      1 1      0.0000
     2 C4      -5.0265  -1.0969  -0.4733   C.ar      1 1      0.0000
     3 C3      -3.7558  -1.1985   0.0678   C.ar      1 1      0.0000
     4 C8      -3.0439  -0.0642   0.4266   C.ar      1 1      0.0000
     5 C7      -3.6337   1.1748   0.2289   C.ar      1 1      0.0000
     6 C6      -4.9044   1.2774  -0.3121   C.ar      1 1      0.0000
     7 H4      -5.5709  -1.9942  -0.7485   H         1 1      0.0000
     8 C9      -1.6575  -0.1752   1.0135   C.3       1 1      0.0000
     9 H7      -3.0931   2.0752   0.5015   H         1 1      0.0000
    10 H6      -5.3525   2.2545  -0.4600   H         1 1      0.0000
    11 C10     -0.5831   0.4716   0.1413   C.3       1 1      0.0000
    12 H9A     -1.6499   0.3016   2.0014   H         1 1      0.0000
    13 C11      0.8486   0.0925   0.4841   C.3       1 1      0.0000
    14 C12      1.8529   0.7658  -0.4448   C.3       1 1      0.0000
    15 H12A     2.0071   1.8010  -0.1162   H         1 1      0.0000
    16 C13      3.1758   0.0627  -0.4803   C.2       1 1      0.0000
    17 C14      4.0638   0.1982   0.7200   C.3       1 1      0.0000
    18 H14B     4.7458  -0.6604   0.7522   H         1 1      0.0000
    19 H14A     3.4500   0.1677   1.6285   H         1 1      0.0000
    20 N        3.5282  -0.6596  -1.5251   N.pl3     1 1      0.0000
    21 HN       2.8267  -0.7725  -2.2567   H         1 1      0.0000
    22 C        4.7587  -1.4215  -1.6806   C.3       1 1      0.0000
    23 H1A      4.6599  -2.1550  -2.4781   H         1 1      0.0000
    24 H1C      5.5904  -0.7643  -1.9260   H         1 1      0.0000
    25 H1B      5.0049  -1.9503  -0.7623   H         1 1      0.0000
    26 H10A    -0.7732   0.1943  -0.9029   H         1 1      0.0000
    27 H10B    -0.6813   1.5612   0.2222   H         1 1      0.0000
    28 H9B     -1.4136  -1.2356   1.1527   H         1 1      0.0000
    29 H5      -6.5967   0.2212  -1.0869   H         1 1      0.0000
    30 H3      -3.3118  -2.1778   0.2128   H         1 1      0.0000
    31 H12B     1.4373   0.7962  -1.4595   H         1 1      0.0000
    32 C15      4.8852   1.4742   0.7223   C.3       1 1      0.0000
    33 H15A     4.2090   2.3374   0.6883   H         1 1      0.0000
    34 H15C     5.5090   1.5023  -0.1796   H         1 1      0.0000
    35 OH       1.1232   0.4823   1.8326   O.3       1 1      0.0000
    36 OH1      0.4923   0.0271   2.4431   H         1 1      0.0000
    37 H22      0.9594  -0.9995   0.3970   H         1 1      0.0000
    38 C16      5.7709   1.5865   1.9416   C.3       1 1      0.0000
    39 H16C     6.4684   0.7529   1.9897   H         1 1      0.0000
    40 H16A     6.3467   2.5093   1.9163   H         1 1      0.0000
    41 H16B     5.1756   1.5833   2.8523   H         1 1      0.0000
@<TRIPOS>BOND
     1     1     2   ar
     2     1     6   ar
     3     1    29    1
     4     2     3   ar
     5     2     7    1
     6     3     4   ar
     7     3    30    1
     8     4     5   ar
     9     4     8    1
    10     5     6   ar
    11     5     9    1
    12     6    10    1
    13     8    11    1
    14     8    12    1
    15     8    28    1
    16    11    13    1
    17    11    26    1
    18    11    27    1
    19    13    14    1
    20    14    15    1
    21    14    16    1
    22    14    31    1
    23    16    17    1
    24    16    20    2
    25    17    18    1
    26    17    19    1
    27    17    32    1
    28    20    21    1
    29    20    22    1
    30    22    23    1
    31    22    24    1
    32    22    25    1
    33    32    33    1
    34    32    34    1
    35    13    35    1
    36    35    36    1
    37    13    37    1
    38    32    38    1
    39    38    39    1
    40    38    40    1
    41    38    41    1
@<TRIPOS>SUBSTRUCTURE
     1 1           1 GROUP             0 ****  ****    0  
@<TRIPOS>MOLECULE
Molecule Name_00001_00367
    41    41     1     0     0
SMALL
NO_CHARGES
****
Generated from the CSD

@<TRIPOS>ATOM
     1 C5      -3.7377   1.6176  -1.0855   C.ar      1 1      0.0000
     2 C4      -2.5238   1.7885  -0.4557   C.ar      1 1      0.0000
     3 C3      -1.9637   0.7496   0.2688   C.ar      1 1      0.0000
     4 C8      -2.6090  -0.4730   0.3721   C.ar      1 1      0.0000
     5 C7      -3.8300  -0.6305  -0.2655   C.ar      1 1      0.0000
     6 C6      -4.3910   0.4078  -0.9902   C.ar      1 1      0.0000
     7 H4      -2.0059   2.7392  -0.5275   H         1 1      0.0000
     8 C9      -1.9996  -1.6042   1.1646   C.3       1 1      0.0000
     9 H7      -4.3524  -1.5789  -0.1959   H         1 1      0.0000
    10 H6      -5.3470   0.2685  -1.4841   H         1 1      0.0000
    11 C10     -0.6390  -1.2527   1.7631   C.3       1 1      0.0000
    12 H9A     -2.6853  -1.8809   1.9750   H         1 1      0.0000
    13 C11      0.5003  -1.1327   0.7638   C.3       1 1      0.0000
    14 C12      1.5471  -0.1196   1.2138   C.3       1 1      0.0000
    15 H12A     2.0094  -0.4712   2.1444   H         1 1      0.0000
    16 C13      2.6187   0.1045   0.1906   C.2       1 1      0.0000
    17 C14      3.7124   1.0706   0.5343   C.3       1 1      0.0000
    18 H14B     4.6022   0.8199  -0.0562   H         1 1      0.0000
    19 H14A     3.9750   0.9569   1.5932   H         1 1      0.0000
    20 N        2.6007  -0.5419  -0.9580   N.pl3     1 1      0.0000
    21 HN       1.8724  -1.2470  -1.0711   H         1 1      0.0000
    22 C        3.5889  -0.4509  -2.0229   C.3       1 1      0.0000
    23 H1A      3.5152  -1.3061  -2.6915   H         1 1      0.0000
    24 H1C      3.4399   0.4524  -2.6107   H         1 1      0.0000
    25 H1B      4.5968  -0.4261  -1.6140   H         1 1      0.0000
    26 H10A    -0.7326  -0.2985   2.2963   H         1 1      0.0000
    27 H10B    -0.3748  -2.0230   2.4982   H         1 1      0.0000
    28 H9B     -1.8869  -2.4772   0.5100   H         1 1      0.0000
    29 H5      -4.1768   2.4312  -1.6534   H         1 1      0.0000
    30 H3      -1.0079   0.8944   0.7615   H         1 1      0.0000
    31 H12B     1.0518   0.8357   1.4274   H         1 1      0.0000
    32 C15      3.3436   2.5188   0.2704   C.3       1 1      0.0000
    33 H15A     2.4528   2.7758   0.8567   H         1 1      0.0000
    34 H15C     3.0915   2.6383  -0.7906   H         1 1      0.0000
    35 OH       1.1217  -2.4119   0.6108   O.3       1 1      0.0000
    36 OH1      0.4528  -3.0686   0.2958   H         1 1      0.0000
    37 H22      0.0911  -0.8146  -0.2075   H         1 1      0.0000
    38 C16      4.4619   3.4714   0.6248   C.3       1 1      0.0000
    39 H16C     5.3538   3.2534   0.0411   H         1 1      0.0000
    40 H16A     4.1697   4.5004   0.4256   H         1 1      0.0000
    41 H16B     4.7184   3.3899   1.6790   H         1 1      0.0000
@<TRIPOS>BOND
     1     1     2   ar
     2     1     6   ar
     3     1    29    1
     4     2     3   ar
     5     2     7    1
     6     3     4   ar
     7     3    30    1
     8     4     5   ar
     9     4     8    1
    10     5     6   ar
    11     5     9    1
    12     6    10    1
    13     8    11    1
    14     8    12    1
    15     8    28    1
    16    11    13    1
    17    11    26    1
    18    11    27    1
    19    13    14    1
    20    14    15    1
    21    14    16    1
    22    14    31    1
    23    16    17    1
    24    16    20    2
    25    17    18    1
    26    17    19    1
    27    17    32    1
    28    20    21    1
    29    20    22    1
    30    22    23    1
    31    22    24    1
    32    22    25    1
    33    32    33    1
    34    32    34    1
    35    13    35    1
    36    35    36    1
    37    13    37    1
    38    32    38    1
    39    38    39    1
    40    38    40    1
    41    38    41    1
@<TRIPOS>SUBSTRUCTURE
     1 1           1 GROUP             0 ****  ****    0  
@<TRIPOS>MOLECULE
Molecule Name_00001_00368
    41    41     1     0     0
SMALL
NO_CHARGES
****
Generated from the CSD

@<TRIPOS>ATOM
     1 C5      -5.4794  -0.0244   0.1799   C.ar      1 1      0.0000
     2 C4      -4.6511  -0.7255  -0.6697   C.ar      1 1      0.0000
     3 C3      -3.2760  -0.6314  -0.5351   C.ar      1 1      0.0000
     4 C8      -2.7116   0.1637   0.4505   C.ar      1 1      0.0000
     5 C7      -3.5568   0.8643   1.2972   C.ar      1 1      0.0000
     6 C6      -4.9320   0.7709   1.1635   C.ar      1 1      0.0000
     7 H4      -5.0774  -1.3526  -1.4458   H         1 1      0.0000
     8 C9      -1.2126   0.2685   0.5948   C.3       1 1      0.0000
     9 H7      -3.1355   1.4935   2.0743   H         1 1      0.0000
    10 H6      -5.5800   1.3250   1.8345   H         1 1      0.0000
    11 C10     -0.5189   0.7458  -0.6796   C.3       1 1      0.0000
    12 H9A     -0.9813   0.9656   1.4096   H         1 1      0.0000
    13 C11      0.9936   0.8695  -0.5901   C.3       1 1      0.0000
    14 C12      1.6715  -0.4936  -0.5050   C.3       1 1      0.0000
    15 H12A     1.4330  -1.0695  -1.4077   H         1 1      0.0000
    16 C13      3.1605  -0.3961  -0.3674   C.2       1 1      0.0000
    17 C14      3.7058   0.7145   0.4794   C.3       1 1      0.0000
    18 H14B     3.1511   1.6337   0.2544   H         1 1      0.0000
    19 H14A     4.7559   0.8883   0.2146   H         1 1      0.0000
    20 N        3.9514  -1.2696  -0.9580   N.pl3     1 1      0.0000
    21 HN       3.4940  -2.0447  -1.4378   H         1 1      0.0000
    22 C        5.4043  -1.3180  -0.8823   C.3       1 1      0.0000
    23 H1A      5.7572  -2.3470  -0.8976   H         1 1      0.0000
    24 H1C      5.8516  -0.7939  -1.7243   H         1 1      0.0000
    25 H1B      5.7594  -0.8514   0.0340   H         1 1      0.0000
    26 H10A    -0.7608   0.0443  -1.4876   H         1 1      0.0000
    27 H10B    -0.9306   1.7255  -0.9516   H         1 1      0.0000
    28 H9B     -0.8120  -0.7143   0.8726   H         1 1      0.0000
    29 H5      -6.5568  -0.0980   0.0749   H         1 1      0.0000
    30 H3      -2.6324  -1.1869  -1.2093   H         1 1      0.0000
    31 H12B     1.2683  -1.0406   0.3561   H         1 1      0.0000
    32 C15      3.6117   0.4399   1.9689   C.3       1 1      0.0000
    33 H15A     4.1630  -0.4797   2.2007   H         1 1      0.0000
    34 H15C     2.5611   0.2770   2.2391   H         1 1      0.0000
    35 OH       1.4734   1.5599  -1.7472   O.3       1 1      0.0000
    36 OH1      1.0551   2.4548  -1.7950   H         1 1      0.0000
    37 H22      1.2516   1.4523   0.3077   H         1 1      0.0000
    38 C16      4.1675   1.5734   2.7995   C.3       1 1      0.0000
    39 H16C     3.6241   2.4959   2.6059   H         1 1      0.0000
    40 H16A     4.0870   1.3492   3.8611   H         1 1      0.0000
    41 H16B     5.2168   1.7431   2.5675   H         1 1      0.0000
@<TRIPOS>BOND
     1     1     2   ar
     2     1     6   ar
     3     1    29    1
     4     2     3   ar
     5     2     7    1
     6     3     4   ar
     7     3    30    1
     8     4     5   ar
     9     4     8    1
    10     5     6   ar
    11     5     9    1
    12     6    10    1
    13     8    11    1
    14     8    12    1
    15     8    28    1
    16    11    13    1
    17    11    26    1
    18    11    27    1
    19    13    14    1
    20    14    15    1
    21    14    16    1
    22    14    31    1
    23    16    17    1
    24    16    20    2
    25    17    18    1
    26    17    19    1
    27    17    32    1
    28    20    21    1
    29    20    22    1
    30    22    23    1
    31    22    24    1
    32    22    25    1
    33    32    33    1
    34    32    34    1
    35    13    35    1
    36    35    36    1
    37    13    37    1
    38    32    38    1
    39    38    39    1
    40    38    40    1
    41    38    41    1
@<TRIPOS>SUBSTRUCTURE
     1 1           1 GROUP             0 ****  ****    0  
@<TRIPOS>MOLECULE
Molecule Name_00001_00369
    41    41     1     0     0
SMALL
NO_CHARGES
****
Generated from the CSD

@<TRIPOS>ATOM
     1 C5      -5.5157   0.1276  -0.0006   C.ar      1 1      0.0000
     2 C4      -4.6817  -0.2309  -1.0375   C.ar      1 1      0.0000
     3 C3      -3.3122  -0.2905  -0.8399   C.ar      1 1      0.0000
     4 C8      -2.7595   0.0066   0.3964   C.ar      1 1      0.0000
     5 C7      -3.6103   0.3669   1.4300   C.ar      1 1      0.0000
     6 C6      -4.9799   0.4267   1.2334   C.ar      1 1      0.0000
     7 H4      -5.0988  -0.4670  -2.0109   H         1 1      0.0000
     8 C9      -1.2665  -0.0554   0.6105   C.3       1 1      0.0000
     9 H7      -3.1981   0.6048   2.4050   H         1 1      0.0000
    10 H6      -5.6325   0.7098   2.0526   H         1 1      0.0000
    11 C10     -0.4851   0.8424  -0.3468   C.3       1 1      0.0000
    12 H9A     -1.0422   0.2424   1.6423   H         1 1      0.0000
    13 C11      1.0251   0.8186  -0.1750   C.3       1 1      0.0000
    14 C12      1.6279  -0.5076  -0.6251   C.3       1 1      0.0000
    15 H12A     1.5063  -0.6064  -1.7108   H         1 1      0.0000
    16 C13      3.0814  -0.6328  -0.2831   C.2       1 1      0.0000
    17 C14      3.5162  -0.1633   1.0727   C.3       1 1      0.0000
    18 H14B     4.3830  -0.7563   1.3895   H         1 1      0.0000
    19 H14A     2.7096  -0.3449   1.7935   H         1 1      0.0000
    20 N        3.9343  -1.1540  -1.1424   N.pl3     1 1      0.0000
    21 HN       3.5384  -1.5311  -2.0034   H         1 1      0.0000
    22 C        5.3586  -1.3692  -0.9325   C.3       1 1      0.0000
    23 H1A      5.7392  -2.1254  -1.6159   H         1 1      0.0000
    24 H1C      5.9160  -0.4500  -1.1000   H         1 1      0.0000
    25 H1B      5.5535  -1.7026   0.0846   H         1 1      0.0000
    26 H10A    -0.7205   0.5387  -1.3744   H         1 1      0.0000
    27 H10B    -0.8322   1.8746  -0.2144   H         1 1      0.0000
    28 H9B     -0.9310  -1.0919   0.4819   H         1 1      0.0000
    29 H5      -6.5887   0.1741  -0.1550   H         1 1      0.0000
    30 H3      -2.6640  -0.5732  -1.6627   H         1 1      0.0000
    31 H12B     1.0774  -1.3298  -0.1515   H         1 1      0.0000
    32 C15      3.8903   1.3068   1.1112   C.3       1 1      0.0000
    33 H15A     3.0151   1.9081   0.8357   H         1 1      0.0000
    34 H15C     4.6746   1.4981   0.3685   H         1 1      0.0000
    35 OH       1.5979   1.8790  -0.9453   O.3       1 1      0.0000
    36 OH1      1.2286   2.7447  -0.6417   H         1 1      0.0000
    37 H22      1.2660   0.9770   0.8876   H         1 1      0.0000
    38 C16      4.3806   1.7407   2.4732   C.3       1 1      0.0000
    39 H16C     5.2633   1.1747   2.7636   H         1 1      0.0000
    40 H16A     4.6409   2.7971   2.4710   H         1 1      0.0000
    41 H16B     3.6131   1.5824   3.2279   H         1 1      0.0000
@<TRIPOS>BOND
     1     1     2   ar
     2     1     6   ar
     3     1    29    1
     4     2     3   ar
     5     2     7    1
     6     3     4   ar
     7     3    30    1
     8     4     5   ar
     9     4     8    1
    10     5     6   ar
    11     5     9    1
    12     6    10    1
    13     8    11    1
    14     8    12    1
    15     8    28    1
    16    11    13    1
    17    11    26    1
    18    11    27    1
    19    13    14    1
    20    14    15    1
    21    14    16    1
    22    14    31    1
    23    16    17    1
    24    16    20    2
    25    17    18    1
    26    17    19    1
    27    17    32    1
    28    20    21    1
    29    20    22    1
    30    22    23    1
    31    22    24    1
    32    22    25    1
    33    32    33    1
    34    32    34    1
    35    13    35    1
    36    35    36    1
    37    13    37    1
    38    32    38    1
    39    38    39    1
    40    38    40    1
    41    38    41    1
@<TRIPOS>SUBSTRUCTURE
     1 1           1 GROUP             0 ****  ****    0  
@<TRIPOS>MOLECULE
Molecule Name_00001_00370
    41    41     1     0     0
SMALL
NO_CHARGES
****
Generated from the CSD

@<TRIPOS>ATOM
     1 C5      -5.4959   0.8321   0.5304   C.ar      1 1      0.0000
     2 C4      -5.0438   1.0246  -0.7572   C.ar      1 1      0.0000
     3 C3      -3.7917   0.5656  -1.1307   C.ar      1 1      0.0000
     4 C8      -2.9763  -0.0921  -0.2226   C.ar      1 1      0.0000
     5 C7      -3.4435  -0.2776   1.0695   C.ar      1 1      0.0000
     6 C6      -4.6954   0.1810   1.4440   C.ar      1 1      0.0000
     7 H4      -5.6702   1.5370  -1.4799   H         1 1      0.0000
     8 C9      -1.6103  -0.5894  -0.6292   C.3       1 1      0.0000
     9 H7      -2.8205  -0.7885   1.7963   H         1 1      0.0000
    10 H6      -5.0468   0.0274   2.4590   H         1 1      0.0000
    11 C10     -0.4740   0.0805   0.1410   C.3       1 1      0.0000
    12 H9A     -1.5625  -1.6730  -0.4651   H         1 1      0.0000
    13 C11      0.9255  -0.3837  -0.2293   C.3       1 1      0.0000
    14 C12      1.9975   0.3475   0.5713   C.3       1 1      0.0000
    15 H12A     1.8762   0.1083   1.6350   H         1 1      0.0000
    16 C13      3.3888  -0.0113   0.1457   C.2       1 1      0.0000
    17 C14      4.1413   0.9917  -0.6761   C.3       1 1      0.0000
    18 H14B     3.4424   1.4725  -1.3716   H         1 1      0.0000
    19 H14A     4.8993   0.4721  -1.2748   H         1 1      0.0000
    20 N        3.9277  -1.1606   0.5010   N.pl3     1 1      0.0000
    21 HN       3.3806  -1.7420   1.1356   H         1 1      0.0000
    22 C        5.2731  -1.6227   0.1922   C.3       1 1      0.0000
    23 H1A      5.6758  -2.2132   1.0125   H         1 1      0.0000
    24 H1C      5.2719  -2.2421  -0.7023   H         1 1      0.0000
    25 H1B      5.9410  -0.7813   0.0203   H         1 1      0.0000
    26 H10A    -0.5344   1.1629  -0.0268   H         1 1      0.0000
    27 H10B    -0.6269  -0.1019   1.2118   H         1 1      0.0000
    28 H9B     -1.4700  -0.4078  -1.7020   H         1 1      0.0000
    29 H5      -6.4769   1.1914   0.8233   H         1 1      0.0000
    30 H3      -3.4446   0.7226  -2.1467   H         1 1      0.0000
    31 H12B     1.8561   1.4291   0.4543   H         1 1      0.0000
    32 C15      4.8196   2.0655   0.1544   C.3       1 1      0.0000
    33 H15A     5.4438   2.6860  -0.5004   H         1 1      0.0000
    34 H15C     5.4783   1.5886   0.8907   H         1 1      0.0000
    35 OH       1.0311  -1.7882   0.0199   O.3       1 1      0.0000
    36 OH1      0.3560  -2.2708  -0.5180   H         1 1      0.0000
    37 H22      1.0918  -0.1964  -1.3014   H         1 1      0.0000
    38 C16      3.8273   2.9485   0.8751   C.3       1 1      0.0000
    39 H16C     3.2493   2.3720   1.5943   H         1 1      0.0000
    40 H16A     4.3385   3.7450   1.4117   H         1 1      0.0000
    41 H16B     3.1344   3.4045   0.1711   H         1 1      0.0000
@<TRIPOS>BOND
     1     1     2   ar
     2     1     6   ar
     3     1    29    1
     4     2     3   ar
     5     2     7    1
     6     3     4   ar
     7     3    30    1
     8     4     5   ar
     9     4     8    1
    10     5     6   ar
    11     5     9    1
    12     6    10    1
    13     8    11    1
    14     8    12    1
    15     8    28    1
    16    11    13    1
    17    11    26    1
    18    11    27    1
    19    13    14    1
    20    14    15    1
    21    14    16    1
    22    14    31    1
    23    16    17    1
    24    16    20    2
    25    17    18    1
    26    17    19    1
    27    17    32    1
    28    20    21    1
    29    20    22    1
    30    22    23    1
    31    22    24    1
    32    22    25    1
    33    32    33    1
    34    32    34    1
    35    13    35    1
    36    35    36    1
    37    13    37    1
    38    32    38    1
    39    38    39    1
    40    38    40    1
    41    38    41    1
@<TRIPOS>SUBSTRUCTURE
     1 1           1 GROUP             0 ****  ****    0  
@<TRIPOS>MOLECULE
Molecule Name_00001_00371
    41    41     1     0     0
SMALL
NO_CHARGES
****
Generated from the CSD

@<TRIPOS>ATOM
     1 C5      -4.6624  -0.7805   0.2811   C.ar      1 1      0.0000
     2 C4      -3.7655  -1.3346  -0.6065   C.ar      1 1      0.0000
     3 C3      -2.4355  -0.9492  -0.5832   C.ar      1 1      0.0000
     4 C8      -1.9852  -0.0062   0.3279   C.ar      1 1      0.0000
     5 C7      -2.8987   0.5438   1.2140   C.ar      1 1      0.0000
     6 C6      -4.2289   0.1591   1.1915   C.ar      1 1      0.0000
     7 H4      -4.1022  -2.0744  -1.3253   H         1 1      0.0000
     8 C9      -0.5360   0.4160   0.3508   C.3       1 1      0.0000
     9 H7      -2.5673   1.2846   1.9341   H         1 1      0.0000
    10 H6      -4.9314   0.5983   1.8920   H         1 1      0.0000
    11 C10     -0.2289   1.5599  -0.6136   C.3       1 1      0.0000
    12 H9A     -0.2720   0.7271   1.3691   H         1 1      0.0000
    13 C11      1.2045   2.0657  -0.5880   C.3       1 1      0.0000
    14 C12      2.1632   1.0919  -1.2643   C.3       1 1      0.0000
    15 H12A     3.1249   1.5929  -1.4306   H         1 1      0.0000
    16 C13      2.3932  -0.1519  -0.4609   C.2       1 1      0.0000
    17 C14      2.5259  -0.0012   1.0248   C.3       1 1      0.0000
    18 H14B     2.3324  -0.9728   1.4960   H         1 1      0.0000
    19 H14A     1.7634   0.6996   1.3862   H         1 1      0.0000
    20 N        2.4570  -1.3312  -1.0463   N.pl3     1 1      0.0000
    21 HN       2.2648  -1.3522  -2.0477   H         1 1      0.0000
    22 C        2.6383  -2.6186  -0.3916   C.3       1 1      0.0000
    23 H1A      2.3281  -3.4309  -1.0456   H         1 1      0.0000
    24 H1C      3.6829  -2.7742  -0.1303   H         1 1      0.0000
    25 H1B      2.0492  -2.6746   0.5212   H         1 1      0.0000
    26 H10A    -0.4582   1.2235  -1.6323   H         1 1      0.0000
    27 H10B    -0.8959   2.3987  -0.3794   H         1 1      0.0000
    28 H9B      0.0903  -0.4467   0.0923   H         1 1      0.0000
    29 H5      -5.7044  -1.0823   0.2633   H         1 1      0.0000
    30 H3      -1.7373  -1.3909  -1.2865   H         1 1      0.0000
    31 H12B     1.7579   0.8138  -2.2450   H         1 1      0.0000
    32 C15      3.8937   0.4894   1.4621   C.3       1 1      0.0000
    33 H15A     4.0946   1.4603   0.9927   H         1 1      0.0000
    34 H15C     4.6577  -0.2157   1.1120   H         1 1      0.0000
    35 OH       1.2653   3.3264  -1.2609   O.3       1 1      0.0000
    36 OH1      0.6632   3.9698  -0.8120   H         1 1      0.0000
    37 H22      1.5160   2.2029   0.4591   H         1 1      0.0000
    38 C16      4.0013   0.6327   2.9626   C.3       1 1      0.0000
    39 H16C     3.8278  -0.3220   3.4547   H         1 1      0.0000
    40 H16A     4.9907   0.9854   3.2464   H         1 1      0.0000
    41 H16B     3.2679   1.3446   3.3356   H         1 1      0.0000
@<TRIPOS>BOND
     1     1     2   ar
     2     1     6   ar
     3     1    29    1
     4     2     3   ar
     5     2     7    1
     6     3     4   ar
     7     3    30    1
     8     4     5   ar
     9     4     8    1
    10     5     6   ar
    11     5     9    1
    12     6    10    1
    13     8    11    1
    14     8    12    1
    15     8    28    1
    16    11    13    1
    17    11    26    1
    18    11    27    1
    19    13    14    1
    20    14    15    1
    21    14    16    1
    22    14    31    1
    23    16    17    1
    24    16    20    2
    25    17    18    1
    26    17    19    1
    27    17    32    1
    28    20    21    1
    29    20    22    1
    30    22    23    1
    31    22    24    1
    32    22    25    1
    33    32    33    1
    34    32    34    1
    35    13    35    1
    36    35    36    1
    37    13    37    1
    38    32    38    1
    39    38    39    1
    40    38    40    1
    41    38    41    1
@<TRIPOS>SUBSTRUCTURE
     1 1           1 GROUP             0 ****  ****    0  
@<TRIPOS>MOLECULE
Molecule Name_00001_00372
    41    41     1     0     0
SMALL
NO_CHARGES
****
Generated from the CSD

@<TRIPOS>ATOM
     1 C5      -4.8059   0.3424   0.7077   C.ar      1 1      0.0000
     2 C4      -3.9088   1.3787   0.8515   C.ar      1 1      0.0000
     3 C3      -2.6824   1.3310   0.2100   C.ar      1 1      0.0000
     4 C8      -2.3376   0.2478  -0.5837   C.ar      1 1      0.0000
     5 C7      -3.2493  -0.7880  -0.7184   C.ar      1 1      0.0000
     6 C6      -4.4760  -0.7413  -0.0773   C.ar      1 1      0.0000
     7 H4      -4.1640   2.2337   1.4687   H         1 1      0.0000
     8 C9      -0.9993   0.1948  -1.2802   C.3       1 1      0.0000
     9 H7      -2.9986  -1.6458  -1.3337   H         1 1      0.0000
    10 H6      -5.1788  -1.5597  -0.1933   H         1 1      0.0000
    11 C10     -0.1238  -0.9652  -0.8102   C.3       1 1      0.0000
    12 H9A     -1.1638   0.1028  -2.3608   H         1 1      0.0000
    13 C11      0.4306  -0.8328   0.5991   C.3       1 1      0.0000
    14 C12      1.3540   0.3728   0.7359   C.3       1 1      0.0000
    15 H12A     1.5526   0.5533   1.7996   H         1 1      0.0000
    16 C13      2.6578   0.1924   0.0196   C.2       1 1      0.0000
    17 C14      3.6299   1.3332   0.0543   C.3       1 1      0.0000
    18 H14B     3.0741   2.2728  -0.0531   H         1 1      0.0000
    19 H14A     4.3120   1.2525  -0.8008   H         1 1      0.0000
    20 N        2.9368  -0.9373  -0.5995   N.pl3     1 1      0.0000
    21 HN       2.2588  -1.6920  -0.4952   H         1 1      0.0000
    22 C        4.1702  -1.2633  -1.3006   C.3       1 1      0.0000
    23 H1A      4.4124  -2.3177  -1.1849   H         1 1      0.0000
    24 H1C      4.0764  -1.0521  -2.3638   H         1 1      0.0000
    25 H1B      5.0019  -0.6798  -0.9117   H         1 1      0.0000
    26 H10A    -0.7152  -1.8876  -0.8634   H         1 1      0.0000
    27 H10B     0.7188  -1.0667  -1.5053   H         1 1      0.0000
    28 H9B     -0.4679   1.1379  -1.1025   H         1 1      0.0000
    29 H5      -5.7670   0.3795   1.2099   H         1 1      0.0000
    30 H3      -1.9827   2.1516   0.3300   H         1 1      0.0000
    31 H12B     0.8465   1.2594   0.3361   H         1 1      0.0000
    32 C15      4.4459   1.3922   1.3324   C.3       1 1      0.0000
    33 H15A     5.0031   0.4543   1.4471   H         1 1      0.0000
    34 H15C     3.7668   1.4847   2.1889   H         1 1      0.0000
    35 OH      -0.6581  -0.6956   1.5165   O.3       1 1      0.0000
    36 OH1     -1.2482  -1.4864   1.4496   H         1 1      0.0000
    37 H22      0.9959  -1.7444   0.8474   H         1 1      0.0000
    38 C16      5.4172   2.5499   1.3423   C.3       1 1      0.0000
    39 H16C     4.8894   3.4970   1.2517   H         1 1      0.0000
    40 H16A     5.9874   2.5670   2.2687   H         1 1      0.0000
    41 H16B     6.1185   2.4721   0.5141   H         1 1      0.0000
@<TRIPOS>BOND
     1     1     2   ar
     2     1     6   ar
     3     1    29    1
     4     2     3   ar
     5     2     7    1
     6     3     4   ar
     7     3    30    1
     8     4     5   ar
     9     4     8    1
    10     5     6   ar
    11     5     9    1
    12     6    10    1
    13     8    11    1
    14     8    12    1
    15     8    28    1
    16    11    13    1
    17    11    26    1
    18    11    27    1
    19    13    14    1
    20    14    15    1
    21    14    16    1
    22    14    31    1
    23    16    17    1
    24    16    20    2
    25    17    18    1
    26    17    19    1
    27    17    32    1
    28    20    21    1
    29    20    22    1
    30    22    23    1
    31    22    24    1
    32    22    25    1
    33    32    33    1
    34    32    34    1
    35    13    35    1
    36    35    36    1
    37    13    37    1
    38    32    38    1
    39    38    39    1
    40    38    40    1
    41    38    41    1
@<TRIPOS>SUBSTRUCTURE
     1 1           1 GROUP             0 ****  ****    0  
@<TRIPOS>MOLECULE
Molecule Name_00001_00373
    41    41     1     0     0
SMALL
NO_CHARGES
****
Generated from the CSD

@<TRIPOS>ATOM
     1 C5      -4.7268   0.2066   0.6458   C.ar      1 1      0.0000
     2 C4      -3.7939   0.9461   1.3402   C.ar      1 1      0.0000
     3 C3      -2.5205   1.1203   0.8244   C.ar      1 1      0.0000
     4 C8      -2.1639   0.5585  -0.3918   C.ar      1 1      0.0000
     5 C7      -3.1120  -0.1839  -1.0788   C.ar      1 1      0.0000
     6 C6      -4.3857  -0.3587  -0.5639   C.ar      1 1      0.0000
     7 H4      -4.0577   1.3928   2.2932   H         1 1      0.0000
     8 C9      -0.7748   0.7459  -0.9522   C.3       1 1      0.0000
     9 H7      -2.8530  -0.6336  -2.0317   H         1 1      0.0000
    10 H6      -5.1166  -0.9421  -1.1140   H         1 1      0.0000
    11 C10     -0.0035  -0.5647  -1.0952   C.3       1 1      0.0000
    12 H9A     -0.8494   1.2253  -1.9361   H         1 1      0.0000
    13 C11      0.4327  -1.2091   0.2107   C.3       1 1      0.0000
    14 C12      1.4009  -0.3228   0.9865   C.3       1 1      0.0000
    15 H12A     1.5155  -0.7206   2.0024   H         1 1      0.0000
    16 C13      2.7510  -0.2317   0.3427   C.2       1 1      0.0000
    17 C14      3.7732   0.6460   1.0001   C.3       1 1      0.0000
    18 H14B     4.7732   0.2963   0.7152   H         1 1      0.0000
    19 H14A     3.6862   0.5484   2.0892   H         1 1      0.0000
    20 N        3.0248  -0.9156  -0.7503   N.pl3     1 1      0.0000
    21 HN       2.3027  -1.5573  -1.0775   H         1 1      0.0000
    22 C        4.2961  -0.9512  -1.4586   C.3       1 1      0.0000
    23 H1A      4.3286  -1.7901  -2.1507   H         1 1      0.0000
    24 H1C      4.4456  -0.0363  -2.0280   H         1 1      0.0000
    25 H1B      5.1245  -1.0549  -0.7611   H         1 1      0.0000
    26 H10A    -0.6343  -1.2789  -1.6388   H         1 1      0.0000
    27 H10B     0.8899  -0.3761  -1.7032   H         1 1      0.0000
    28 H9B     -0.2133   1.4204  -0.2940   H         1 1      0.0000
    29 H5      -5.7246   0.0701   1.0495   H         1 1      0.0000
    30 H3      -1.7930   1.7038   1.3790   H         1 1      0.0000
    31 H12B     0.9757   0.6851   1.0688   H         1 1      0.0000
    32 C15      3.6429   2.1104   0.6242   C.3       1 1      0.0000
    33 H15A     2.6439   2.4664   0.9047   H         1 1      0.0000
    34 H15C     3.7411   2.2128  -0.4636   H         1 1      0.0000
    35 OH      -0.7230  -1.4574   1.0160   O.3       1 1      0.0000
    36 OH1     -1.3446  -2.0516   0.5275   H         1 1      0.0000
    37 H22      0.9272  -2.1674  -0.0117   H         1 1      0.0000
    38 C16      4.6839   2.9730   1.2995   C.3       1 1      0.0000
    39 H16C     5.6868   2.6559   1.0216   H         1 1      0.0000
    40 H16A     4.5662   4.0157   1.0120   H         1 1      0.0000
    41 H16B     4.5956   2.9078   2.3820   H         1 1      0.0000
@<TRIPOS>BOND
     1     1     2   ar
     2     1     6   ar
     3     1    29    1
     4     2     3   ar
     5     2     7    1
     6     3     4   ar
     7     3    30    1
     8     4     5   ar
     9     4     8    1
    10     5     6   ar
    11     5     9    1
    12     6    10    1
    13     8    11    1
    14     8    12    1
    15     8    28    1
    16    11    13    1
    17    11    26    1
    18    11    27    1
    19    13    14    1
    20    14    15    1
    21    14    16    1
    22    14    31    1
    23    16    17    1
    24    16    20    2
    25    17    18    1
    26    17    19    1
    27    17    32    1
    28    20    21    1
    29    20    22    1
    30    22    23    1
    31    22    24    1
    32    22    25    1
    33    32    33    1
    34    32    34    1
    35    13    35    1
    36    35    36    1
    37    13    37    1
    38    32    38    1
    39    38    39    1
    40    38    40    1
    41    38    41    1
@<TRIPOS>SUBSTRUCTURE
     1 1           1 GROUP             0 ****  ****    0  
@<TRIPOS>MOLECULE
Molecule Name_00001_00374
    41    41     1     0     0
SMALL
NO_CHARGES
****
Generated from the CSD

@<TRIPOS>ATOM
     1 C5      -5.4481   0.6658   0.0354   C.ar      1 1      0.0000
     2 C4      -4.6917   1.0412  -1.0538   C.ar      1 1      0.0000
     3 C3      -3.3670   0.6489  -1.1492   C.ar      1 1      0.0000
     4 C8      -2.7820  -0.1239  -0.1578   C.ar      1 1      0.0000
     5 C7      -3.5543  -0.4931   0.9327   C.ar      1 1      0.0000
     6 C6      -4.8791  -0.1013   1.0290   C.ar      1 1      0.0000
     7 H4      -5.1351   1.6454  -1.8384   H         1 1      0.0000
     8 C9      -1.3370  -0.5485  -0.2606   C.3       1 1      0.0000
     9 H7      -3.1154  -1.0964   1.7205   H         1 1      0.0000
    10 H6      -5.4705  -0.3989   1.8886   H         1 1      0.0000
    11 C10     -0.4648   0.0149   0.8596   C.3       1 1      0.0000
    12 H9A     -1.2853  -1.6440  -0.2365   H         1 1      0.0000
    13 C11      1.0017  -0.3818   0.8048   C.3       1 1      0.0000
    14 C12      1.7289   0.2880  -0.3560   C.3       1 1      0.0000
    15 H12A     1.6745   1.3767  -0.2328   H         1 1      0.0000
    16 C13      3.1671  -0.1208  -0.4561   C.2       1 1      0.0000
    17 C14      4.1482   0.9103  -0.9273   C.3       1 1      0.0000
    18 H14B     3.6700   1.5240  -1.7006   H         1 1      0.0000
    19 H14A     5.0073   0.4074  -1.3880   H         1 1      0.0000
    20 N        3.5474  -1.3381  -0.1230   N.pl3     1 1      0.0000
    21 HN       2.8304  -1.9454   0.2737   H         1 1      0.0000
    22 C        4.9067  -1.8588  -0.1357   C.3       1 1      0.0000
    23 H1A      5.0572  -2.5640   0.6790   H         1 1      0.0000
    24 H1C      5.1133  -2.3736  -1.0717   H         1 1      0.0000
    25 H1B      5.6302  -1.0539  -0.0254   H         1 1      0.0000
    26 H10A    -0.5278   1.1096   0.8287   H         1 1      0.0000
    27 H10B    -0.8774  -0.3176   1.8201   H         1 1      0.0000
    28 H9B     -0.9362  -0.2166  -1.2263   H         1 1      0.0000
    29 H5      -6.4861   0.9727   0.1104   H         1 1      0.0000
    30 H3      -2.7797   0.9500  -2.0104   H         1 1      0.0000
    31 H12B     1.2189   0.0323  -1.2930   H         1 1      0.0000
    32 C15      4.6454   1.8210   0.1801   C.3       1 1      0.0000
    33 H15A     5.4464   2.4598  -0.2119   H         1 1      0.0000
    34 H15C     5.0697   1.2093   0.9858   H         1 1      0.0000
    35 OH       1.6319  -0.0051   2.0323   O.3       1 1      0.0000
    36 OH1      1.1796  -0.4554   2.7877   H         1 1      0.0000
    37 H22      1.0719  -1.4742   0.6863   H         1 1      0.0000
    38 C16      3.5478   2.6929   0.7448   C.3       1 1      0.0000
    39 H16C     2.7914   2.0881   1.2406   H         1 1      0.0000
    40 H16A     3.9493   3.3962   1.4714   H         1 1      0.0000
    41 H16B     3.0624   3.2620  -0.0453   H         1 1      0.0000
@<TRIPOS>BOND
     1     1     2   ar
     2     1     6   ar
     3     1    29    1
     4     2     3   ar
     5     2     7    1
     6     3     4   ar
     7     3    30    1
     8     4     5   ar
     9     4     8    1
    10     5     6   ar
    11     5     9    1
    12     6    10    1
    13     8    11    1
    14     8    12    1
    15     8    28    1
    16    11    13    1
    17    11    26    1
    18    11    27    1
    19    13    14    1
    20    14    15    1
    21    14    16    1
    22    14    31    1
    23    16    17    1
    24    16    20    2
    25    17    18    1
    26    17    19    1
    27    17    32    1
    28    20    21    1
    29    20    22    1
    30    22    23    1
    31    22    24    1
    32    22    25    1
    33    32    33    1
    34    32    34    1
    35    13    35    1
    36    35    36    1
    37    13    37    1
    38    32    38    1
    39    38    39    1
    40    38    40    1
    41    38    41    1
@<TRIPOS>SUBSTRUCTURE
     1 1           1 GROUP             0 ****  ****    0  
@<TRIPOS>MOLECULE
Molecule Name_00001_00375
    41    41     1     0     0
SMALL
NO_CHARGES
****
Generated from the CSD

@<TRIPOS>ATOM
     1 C5      -5.5663   0.5565  -0.0743   C.ar      1 1      0.0000
     2 C4      -4.8157   0.8065  -1.2027   C.ar      1 1      0.0000
     3 C3      -3.4792   0.4455  -1.2431   C.ar      1 1      0.0000
     4 C8      -2.8767  -0.1703  -0.1569   C.ar      1 1      0.0000
     5 C7      -3.6436  -0.4146   0.9720   C.ar      1 1      0.0000
     6 C6      -4.9801  -0.0540   1.0134   C.ar      1 1      0.0000
     7 H4      -5.2727   1.2872  -2.0613   H         1 1      0.0000
     8 C9      -1.4191  -0.5607  -0.2002   C.3       1 1      0.0000
     9 H7      -3.1911  -0.8941   1.8337   H         1 1      0.0000
    10 H6      -5.5669  -0.2526   1.9041   H         1 1      0.0000
    11 C10     -0.5704   0.1730   0.8363   C.3       1 1      0.0000
    12 H9A     -1.3347  -1.6412  -0.0304   H         1 1      0.0000
    13 C11      0.9077  -0.1826   0.8369   C.3       1 1      0.0000
    14 C12      1.6208   0.3486  -0.4017   C.3       1 1      0.0000
    15 H12A     1.5312   1.4417  -0.4257   H         1 1      0.0000
    16 C13      3.0718  -0.0233  -0.4430   C.2       1 1      0.0000
    17 C14      4.0201   0.9575  -1.0646   C.3       1 1      0.0000
    18 H14B     3.5437   1.3946  -1.9508   H         1 1      0.0000
    19 H14A     4.9197   0.4272  -1.4000   H         1 1      0.0000
    20 N        3.4906  -1.1644   0.0668   N.pl3     1 1      0.0000
    21 HN       2.7928  -1.7289   0.5511   H         1 1      0.0000
    22 C        4.8662  -1.6367   0.1287   C.3       1 1      0.0000
    23 H1A      5.0446  -2.1847   1.0515   H         1 1      0.0000
    24 H1C      5.0840  -2.2993  -0.7063   H         1 1      0.0000
    25 H1B      5.5635  -0.8026   0.0895   H         1 1      0.0000
    26 H10A    -0.6660   1.2515   0.6598   H         1 1      0.0000
    27 H10B    -0.9781  -0.0412   1.8320   H         1 1      0.0000
    28 H9B     -1.0232  -0.3481  -1.2009   H         1 1      0.0000
    29 H5      -6.6135   0.8389  -0.0423   H         1 1      0.0000
    30 H3      -2.8966   0.6471  -2.1359   H         1 1      0.0000
    31 H12B     1.1252  -0.0465  -1.2970   H         1 1      0.0000
    32 C15      4.4290   2.0788  -0.1274   C.3       1 1      0.0000
    33 H15A     3.5291   2.5900   0.2362   H         1 1      0.0000
    34 H15C     5.0284   2.8111  -0.6823   H         1 1      0.0000
    35 OH       1.5196   0.3730   2.0042   O.3       1 1      0.0000
    36 OH1      1.0769   0.0136   2.8122   H         1 1      0.0000
    37 H22      1.0112  -1.2784   0.8650   H         1 1      0.0000
    38 C16      5.2266   1.5788   1.0548   C.3       1 1      0.0000
    39 H16C     6.1381   1.0852   0.7242   H         1 1      0.0000
    40 H16A     5.5054   2.4029   1.7083   H         1 1      0.0000
    41 H16B     4.6471   0.8656   1.6372   H         1 1      0.0000
@<TRIPOS>BOND
     1     1     2   ar
     2     1     6   ar
     3     1    29    1
     4     2     3   ar
     5     2     7    1
     6     3     4   ar
     7     3    30    1
     8     4     5   ar
     9     4     8    1
    10     5     6   ar
    11     5     9    1
    12     6    10    1
    13     8    11    1
    14     8    12    1
    15     8    28    1
    16    11    13    1
    17    11    26    1
    18    11    27    1
    19    13    14    1
    20    14    15    1
    21    14    16    1
    22    14    31    1
    23    16    17    1
    24    16    20    2
    25    17    18    1
    26    17    19    1
    27    17    32    1
    28    20    21    1
    29    20    22    1
    30    22    23    1
    31    22    24    1
    32    22    25    1
    33    32    33    1
    34    32    34    1
    35    13    35    1
    36    35    36    1
    37    13    37    1
    38    32    38    1
    39    38    39    1
    40    38    40    1
    41    38    41    1
@<TRIPOS>SUBSTRUCTURE
     1 1           1 GROUP             0 ****  ****    0  
@<TRIPOS>MOLECULE
Molecule Name_00001_00376
    41    41     1     0     0
SMALL
NO_CHARGES
****
Generated from the CSD

@<TRIPOS>ATOM
     1 C5      -5.4039   0.5726   0.4263   C.ar      1 1      0.0000
     2 C4      -4.5454   1.6273   0.6501   C.ar      1 1      0.0000
     3 C3      -3.2034   1.5122   0.3282   C.ar      1 1      0.0000
     4 C8      -2.7028   0.3422  -0.2220   C.ar      1 1      0.0000
     5 C7      -3.5775  -0.7110  -0.4405   C.ar      1 1      0.0000
     6 C6      -4.9197  -0.5969  -0.1190   C.ar      1 1      0.0000
     7 H4      -4.9219   2.5499   1.0795   H         1 1      0.0000
     8 C9      -1.2393   0.2160  -0.5697   C.3       1 1      0.0000
     9 H7      -3.2059  -1.6360  -0.8688   H         1 1      0.0000
    10 H6      -5.5917  -1.4300  -0.2967   H         1 1      0.0000
    11 C10     -0.5230  -0.8682   0.2330   C.3       1 1      0.0000
    12 H9A     -1.1457  -0.0110  -1.6389   H         1 1      0.0000
    13 C11      0.9554  -1.0385  -0.0775   C.3       1 1      0.0000
    14 C12      1.7808   0.1424   0.4213   C.3       1 1      0.0000
    15 H12A     1.6665   0.2257   1.5091   H         1 1      0.0000
    16 C13      3.2372   0.0158   0.0918   C.2       1 1      0.0000
    17 C14      4.2202   0.5800   1.0732   C.3       1 1      0.0000
    18 H14B     5.1776   0.0584   0.9518   H         1 1      0.0000
    19 H14A     3.8645   0.3861   2.0925   H         1 1      0.0000
    20 N        3.6291  -0.5865  -1.0132   N.pl3     1 1      0.0000
    21 HN       2.8988  -1.0211  -1.5772   H         1 1      0.0000
    22 C        5.0021  -0.8124  -1.4407   C.3       1 1      0.0000
    23 H1A      5.0483  -1.6009  -2.1890   H         1 1      0.0000
    24 H1C      5.4242   0.0916  -1.8748   H         1 1      0.0000
    25 H1B      5.6256  -1.1067  -0.5992   H         1 1      0.0000
    26 H10A    -0.6270  -0.6335   1.2996   H         1 1      0.0000
    27 H10B    -1.0274  -1.8250   0.0496   H         1 1      0.0000
    28 H9B     -0.7459   1.1789  -0.3885   H         1 1      0.0000
    29 H5      -6.4554   0.6625   0.6781   H         1 1      0.0000
    30 H3      -2.5355   2.3480   0.5087   H         1 1      0.0000
    31 H12B     1.3922   1.0653  -0.0267   H         1 1      0.0000
    32 C15      4.4518   2.0704   0.9066   C.3       1 1      0.0000
    33 H15A     4.7739   2.2717  -0.1225   H         1 1      0.0000
    34 H15C     5.2600   2.3862   1.5778   H         1 1      0.0000
    35 OH       1.4269  -2.2363   0.5459   O.3       1 1      0.0000
    36 OH1      0.9111  -3.0096   0.2083   H         1 1      0.0000
    37 H22      1.0832  -1.1274  -1.1674   H         1 1      0.0000
    38 C16      3.2129   2.8825   1.2058   C.3       1 1      0.0000
    39 H16C     2.8269   2.6469   2.1953   H         1 1      0.0000
    40 H16A     3.4325   3.9476   1.1724   H         1 1      0.0000
    41 H16B     2.4307   2.6748   0.4786   H         1 1      0.0000
@<TRIPOS>BOND
     1     1     2   ar
     2     1     6   ar
     3     1    29    1
     4     2     3   ar
     5     2     7    1
     6     3     4   ar
     7     3    30    1
     8     4     5   ar
     9     4     8    1
    10     5     6   ar
    11     5     9    1
    12     6    10    1
    13     8    11    1
    14     8    12    1
    15     8    28    1
    16    11    13    1
    17    11    26    1
    18    11    27    1
    19    13    14    1
    20    14    15    1
    21    14    16    1
    22    14    31    1
    23    16    17    1
    24    16    20    2
    25    17    18    1
    26    17    19    1
    27    17    32    1
    28    20    21    1
    29    20    22    1
    30    22    23    1
    31    22    24    1
    32    22    25    1
    33    32    33    1
    34    32    34    1
    35    13    35    1
    36    35    36    1
    37    13    37    1
    38    32    38    1
    39    38    39    1
    40    38    40    1
    41    38    41    1
@<TRIPOS>SUBSTRUCTURE
     1 1           1 GROUP             0 ****  ****    0  
@<TRIPOS>MOLECULE
Molecule Name_00001_00377
    41    41     1     0     0
SMALL
NO_CHARGES
****
Generated from the CSD

@<TRIPOS>ATOM
     1 C5      -4.4002  -0.6729  -1.2085   C.ar      1 1      0.0000
     2 C4      -3.2086  -0.0836  -1.5722   C.ar      1 1      0.0000
     3 C3      -2.3634   0.4319  -0.6038   C.ar      1 1      0.0000
     4 C8      -2.6981   0.3641   0.7400   C.ar      1 1      0.0000
     5 C7      -3.9003  -0.2303   1.0912   C.ar      1 1      0.0000
     6 C6      -4.7462  -0.7461   0.1235   C.ar      1 1      0.0000
     7 H4      -2.9321  -0.0233  -2.6197   H         1 1      0.0000
     8 C9      -1.7780   0.9290   1.7950   C.3       1 1      0.0000
     9 H7      -4.1819  -0.2922   2.1372   H         1 1      0.0000
    10 H6      -5.6834  -1.2088   0.4147   H         1 1      0.0000
    11 C10     -0.4849   1.5027   1.2190   C.3       1 1      0.0000
    12 H9A     -2.3066   1.7195   2.3421   H         1 1      0.0000
    13 C11      0.5136   0.4750   0.7111   C.3       1 1      0.0000
    14 C12      1.7621   1.1325   0.1334   C.3       1 1      0.0000
    15 H12A     2.2833   1.6753   0.9315   H         1 1      0.0000
    16 C13      2.7068   0.1467  -0.4842   C.2       1 1      0.0000
    17 C14      3.9687   0.6839  -1.0899   C.3       1 1      0.0000
    18 H14B     3.7443   1.6379  -1.5828   H         1 1      0.0000
    19 H14A     4.3238  -0.0113  -1.8604   H         1 1      0.0000
    20 N        2.4375  -1.1435  -0.4741   N.pl3     1 1      0.0000
    21 HN       1.6038  -1.4295   0.0390   H         1 1      0.0000
    22 C        3.2752  -2.2111  -1.0010   C.3       1 1      0.0000
    23 H1A      3.1861  -3.1077  -0.3912   H         1 1      0.0000
    24 H1C      2.9836  -2.4631  -2.0184   H         1 1      0.0000
    25 H1B      4.3210  -1.9118  -1.0130   H         1 1      0.0000
    26 H10A    -0.7438   2.1720   0.3892   H         1 1      0.0000
    27 H10B     0.0029   2.1046   1.9955   H         1 1      0.0000
    28 H9B     -1.5289   0.1366   2.5115   H         1 1      0.0000
    29 H5      -5.0625  -1.0771  -1.9669   H         1 1      0.0000
    30 H3      -1.4278   0.8944  -0.9003   H         1 1      0.0000
    31 H12B     1.4620   1.8641  -0.6269   H         1 1      0.0000
    32 C15      5.0771   0.9064  -0.0777   C.3       1 1      0.0000
    33 H15A     6.0025   1.1628  -0.6080   H         1 1      0.0000
    34 H15C     5.2544  -0.0259   0.4726   H         1 1      0.0000
    35 OH       0.8925  -0.3801   1.7933   O.3       1 1      0.0000
    36 OH1      0.1065  -0.8989   2.0952   H         1 1      0.0000
    37 H22      0.0345  -0.1308  -0.0735   H         1 1      0.0000
    38 C16      4.7476   2.0069   0.9042   C.3       1 1      0.0000
    39 H16C     4.1161   1.6314   1.7067   H         1 1      0.0000
    40 H16A     5.6546   2.4121   1.3480   H         1 1      0.0000
    41 H16B     4.2199   2.8197   0.4097   H         1 1      0.0000
@<TRIPOS>BOND
     1     1     2   ar
     2     1     6   ar
     3     1    29    1
     4     2     3   ar
     5     2     7    1
     6     3     4   ar
     7     3    30    1
     8     4     5   ar
     9     4     8    1
    10     5     6   ar
    11     5     9    1
    12     6    10    1
    13     8    11    1
    14     8    12    1
    15     8    28    1
    16    11    13    1
    17    11    26    1
    18    11    27    1
    19    13    14    1
    20    14    15    1
    21    14    16    1
    22    14    31    1
    23    16    17    1
    24    16    20    2
    25    17    18    1
    26    17    19    1
    27    17    32    1
    28    20    21    1
    29    20    22    1
    30    22    23    1
    31    22    24    1
    32    22    25    1
    33    32    33    1
    34    32    34    1
    35    13    35    1
    36    35    36    1
    37    13    37    1
    38    32    38    1
    39    38    39    1
    40    38    40    1
    41    38    41    1
@<TRIPOS>SUBSTRUCTURE
     1 1           1 GROUP             0 ****  ****    0  
@<TRIPOS>MOLECULE
Molecule Name_00001_00378
    41    41     1     0     0
SMALL
NO_CHARGES
****
Generated from the CSD

@<TRIPOS>ATOM
     1 C5      -4.3767  -1.0744  -1.0140   C.ar      1 1      0.0000
     2 C4      -3.2099  -0.5254  -1.5006   C.ar      1 1      0.0000
     3 C3      -2.4110   0.2515  -0.6783   C.ar      1 1      0.0000
     4 C8      -2.7675   0.4886   0.6403   C.ar      1 1      0.0000
     5 C7      -3.9445  -0.0688   1.1159   C.ar      1 1      0.0000
     6 C6      -4.7441  -0.8459   0.2945   C.ar      1 1      0.0000
     7 H4      -2.9167  -0.7022  -2.5301   H         1 1      0.0000
     8 C9      -1.8980   1.3382   1.5353   C.3       1 1      0.0000
     9 H7      -4.2427   0.1057   2.1444   H         1 1      0.0000
    10 H6      -5.6619  -1.2756   0.6819   H         1 1      0.0000
    11 C10     -0.6250   1.8268   0.8470   C.3       1 1      0.0000
    12 H9A     -2.4766   2.2066   1.8736   H         1 1      0.0000
    13 C11      0.4342   0.7631   0.6066   C.3       1 1      0.0000
    14 C12      1.6585   1.3301  -0.1036   C.3       1 1      0.0000
    15 H12A     2.1347   2.0767   0.5438   H         1 1      0.0000
    16 C13      2.6652   0.2784  -0.4585   C.2       1 1      0.0000
    17 C14      3.9198   0.7257  -1.1468   C.3       1 1      0.0000
    18 H14B     3.6628   1.5031  -1.8768   H         1 1      0.0000
    19 H14A     4.3491  -0.1187  -1.6997   H         1 1      0.0000
    20 N        2.4540  -0.9871  -0.1563   N.pl3     1 1      0.0000
    21 HN       1.6186  -1.1899   0.3923   H         1 1      0.0000
    22 C        3.3547  -2.1031  -0.4062   C.3       1 1      0.0000
    23 H1A      3.3054  -2.8274   0.4041   H         1 1      0.0000
    24 H1C      3.0910  -2.6114  -1.3314   H         1 1      0.0000
    25 H1B      4.3832  -1.7585  -0.4908   H         1 1      0.0000
    26 H10A    -0.9016   2.2634  -0.1206   H         1 1      0.0000
    27 H10B    -0.1835   2.6223   1.4599   H         1 1      0.0000
    28 H9B     -1.6227   0.7545   2.4224   H         1 1      0.0000
    29 H5      -5.0028  -1.6833  -1.6578   H         1 1      0.0000
    30 H3      -1.4946   0.6797  -1.0709   H         1 1      0.0000
    31 H12B     1.3364   1.8398  -1.0200   H         1 1      0.0000
    32 C15      4.9666   1.2761  -0.1959   C.3       1 1      0.0000
    33 H15A     4.5298   2.0993   0.3827   H         1 1      0.0000
    34 H15C     5.8028   1.6831  -0.7778   H         1 1      0.0000
    35 OH       0.8352   0.2131   1.8646   O.3       1 1      0.0000
    36 OH1      0.0817  -0.2904   2.2604   H         1 1      0.0000
    37 H22      0.0019  -0.0376  -0.0131   H         1 1      0.0000
    38 C16      5.4896   0.2249   0.7555   C.3       1 1      0.0000
    39 H16C     5.9492  -0.5958   0.2086   H         1 1      0.0000
    40 H16A     6.2370   0.6472   1.4239   H         1 1      0.0000
    41 H16B     4.6832  -0.1816   1.3623   H         1 1      0.0000
@<TRIPOS>BOND
     1     1     2   ar
     2     1     6   ar
     3     1    29    1
     4     2     3   ar
     5     2     7    1
     6     3     4   ar
     7     3    30    1
     8     4     5   ar
     9     4     8    1
    10     5     6   ar
    11     5     9    1
    12     6    10    1
    13     8    11    1
    14     8    12    1
    15     8    28    1
    16    11    13    1
    17    11    26    1
    18    11    27    1
    19    13    14    1
    20    14    15    1
    21    14    16    1
    22    14    31    1
    23    16    17    1
    24    16    20    2
    25    17    18    1
    26    17    19    1
    27    17    32    1
    28    20    21    1
    29    20    22    1
    30    22    23    1
    31    22    24    1
    32    22    25    1
    33    32    33    1
    34    32    34    1
    35    13    35    1
    36    35    36    1
    37    13    37    1
    38    32    38    1
    39    38    39    1
    40    38    40    1
    41    38    41    1
@<TRIPOS>SUBSTRUCTURE
     1 1           1 GROUP             0 ****  ****    0  
@<TRIPOS>MOLECULE
Molecule Name_00001_00379
    41    41     1     0     0
SMALL
NO_CHARGES
****
Generated from the CSD

@<TRIPOS>ATOM
     1 C5      -4.0826   0.1340  -1.5773   C.ar      1 1      0.0000
     2 C4      -2.8615   0.7663  -1.4846   C.ar      1 1      0.0000
     3 C3      -2.1561   0.7454  -0.2930   C.ar      1 1      0.0000
     4 C8      -2.6616   0.0918   0.8202   C.ar      1 1      0.0000
     5 C7      -3.8916  -0.5389   0.7129   C.ar      1 1      0.0000
     6 C6      -4.5978  -0.5186  -0.4782   C.ar      1 1      0.0000
     7 H4      -2.4520   1.2817  -2.3471   H         1 1      0.0000
     8 C9      -1.8939   0.0720   2.1199   C.3       1 1      0.0000
     9 H7      -4.3060  -1.0548   1.5728   H         1 1      0.0000
    10 H6      -5.5589  -1.0175  -0.5462   H         1 1      0.0000
    11 C10     -0.5444   0.7819   2.0305   C.3       1 1      0.0000
    12 H9A     -2.4992   0.5528   2.8983   H         1 1      0.0000
    13 C11      0.5248   0.0497   1.2356   C.3       1 1      0.0000
    14 C12      1.8293   0.8369   1.1776   C.3       1 1      0.0000
    15 H12A     2.2343   0.9349   2.1924   H         1 1      0.0000
    16 C13      2.8598   0.1930   0.3007   C.2       1 1      0.0000
    17 C14      4.1906   0.8734   0.1827   C.3       1 1      0.0000
    18 H14B     4.9444   0.1265  -0.0954   H         1 1      0.0000
    19 H14A     4.4747   1.2827   1.1598   H         1 1      0.0000
    20 N        2.6020  -0.9383  -0.3246   N.pl3     1 1      0.0000
    21 HN       1.7062  -1.3789  -0.1158   H         1 1      0.0000
    22 C        3.5143  -1.6902  -1.1739   C.3       1 1      0.0000
    23 H1A      3.1677  -2.7137  -1.3012   H         1 1      0.0000
    24 H1C      3.5893  -1.2331  -2.1584   H         1 1      0.0000
    25 H1B      4.5108  -1.7215  -0.7386   H         1 1      0.0000
    26 H10A    -0.7018   1.7662   1.5725   H         1 1      0.0000
    27 H10B    -0.1694   0.9420   3.0489   H         1 1      0.0000
    28 H9B     -1.7298  -0.9701   2.4207   H         1 1      0.0000
    29 H5      -4.6354   0.1499  -2.5108   H         1 1      0.0000
    30 H3      -1.1959   1.2467  -0.2300   H         1 1      0.0000
    31 H12B     1.6215   1.8465   0.8023   H         1 1      0.0000
    32 C15      4.2084   1.9905  -0.8442   C.3       1 1      0.0000
    33 H15A     5.1735   2.5096  -0.7944   H         1 1      0.0000
    34 H15C     3.4246   2.7177  -0.5985   H         1 1      0.0000
    35 OH       0.7707  -1.2202   1.8461   O.3       1 1      0.0000
    36 OH1     -0.0187  -1.8035   1.7250   H         1 1      0.0000
    37 H22      0.1596  -0.1107   0.2094   H         1 1      0.0000
    38 C16      3.9908   1.4830  -2.2509   C.3       1 1      0.0000
    39 H16C     3.0290   0.9814  -2.3355   H         1 1      0.0000
    40 H16A     4.0087   2.3042  -2.9643   H         1 1      0.0000
    41 H16B     4.7681   0.7747  -2.5299   H         1 1      0.0000
@<TRIPOS>BOND
     1     1     2   ar
     2     1     6   ar
     3     1    29    1
     4     2     3   ar
     5     2     7    1
     6     3     4   ar
     7     3    30    1
     8     4     5   ar
     9     4     8    1
    10     5     6   ar
    11     5     9    1
    12     6    10    1
    13     8    11    1
    14     8    12    1
    15     8    28    1
    16    11    13    1
    17    11    26    1
    18    11    27    1
    19    13    14    1
    20    14    15    1
    21    14    16    1
    22    14    31    1
    23    16    17    1
    24    16    20    2
    25    17    18    1
    26    17    19    1
    27    17    32    1
    28    20    21    1
    29    20    22    1
    30    22    23    1
    31    22    24    1
    32    22    25    1
    33    32    33    1
    34    32    34    1
    35    13    35    1
    36    35    36    1
    37    13    37    1
    38    32    38    1
    39    38    39    1
    40    38    40    1
    41    38    41    1
@<TRIPOS>SUBSTRUCTURE
     1 1           1 GROUP             0 ****  ****    0  
@<TRIPOS>MOLECULE
Molecule Name_00001_00380
    41    41     1     0     0
SMALL
NO_CHARGES
****
Generated from the CSD

@<TRIPOS>ATOM
     1 C5      -4.1319   0.4210  -1.4592   C.ar      1 1      0.0000
     2 C4      -2.8821   0.9920  -1.3523   C.ar      1 1      0.0000
     3 C3      -2.1211   0.7917  -0.2126   C.ar      1 1      0.0000
     4 C8      -2.5992   0.0179   0.8337   C.ar      1 1      0.0000
     5 C7      -3.8585  -0.5493   0.7130   C.ar      1 1      0.0000
     6 C6      -4.6202  -0.3496  -0.4263   C.ar      1 1      0.0000
     7 H4      -2.4936   1.5998  -2.1627   H         1 1      0.0000
     8 C9      -1.7707  -0.1974   2.0771   C.3       1 1      0.0000
     9 H7      -4.2520  -1.1571   1.5210   H         1 1      0.0000
    10 H6      -5.6037  -0.8009  -0.5057   H         1 1      0.0000
    11 C10     -0.3983   0.4694   2.0067   C.3       1 1      0.0000
    12 H9A     -2.3165   0.1997   2.9418   H         1 1      0.0000
    13 C11      0.5991  -0.1913   1.0688   C.3       1 1      0.0000
    14 C12      1.9313   0.5497   1.0418   C.3       1 1      0.0000
    15 H12A     2.3882   0.5022   2.0380   H         1 1      0.0000
    16 C13      2.8906  -0.0128   0.0374   C.2       1 1      0.0000
    17 C14      4.2475   0.6185  -0.0525   C.3       1 1      0.0000
    18 H14B     4.9566  -0.1244  -0.4382   H         1 1      0.0000
    19 H14A     4.5806   0.9032   0.9530   H         1 1      0.0000
    20 N        2.5506  -1.0358  -0.7212   N.pl3     1 1      0.0000
    21 HN       1.6435  -1.4611  -0.5303   H         1 1      0.0000
    22 C        3.3877  -1.7038  -1.7071   C.3       1 1      0.0000
    23 H1A      3.0114  -2.7023  -1.9194   H         1 1      0.0000
    24 H1C      3.4066  -1.1435  -2.6395   H         1 1      0.0000
    25 H1B      4.4101  -1.7963  -1.3471   H         1 1      0.0000
    26 H10A    -0.5360   1.5097   1.6871   H         1 1      0.0000
    27 H10B     0.0322   0.4828   3.0157   H         1 1      0.0000
    28 H9B     -1.6364  -1.2749   2.2333   H         1 1      0.0000
    29 H5      -4.7283   0.5774  -2.3520   H         1 1      0.0000
    30 H3      -1.1387   1.2460  -0.1378   H         1 1      0.0000
    31 H12B     1.7486   1.6059   0.8085   H         1 1      0.0000
    32 C15      4.2859   1.8417  -0.9497   C.3       1 1      0.0000
    33 H15A     3.9019   1.5727  -1.9414   H         1 1      0.0000
    34 H15C     5.3267   2.1665  -1.0709   H         1 1      0.0000
    35 OH       0.8204  -1.5376   1.4982   O.3       1 1      0.0000
    36 OH1     -0.0074  -2.0642   1.3746   H         1 1      0.0000
    37 H22      0.1780  -0.2043   0.0516   H         1 1      0.0000
    38 C16      3.4702   2.9873  -0.3965   C.3       1 1      0.0000
    39 H16C     3.5370   3.0195   0.6890   H         1 1      0.0000
    40 H16A     3.8268   3.9383  -0.7864   H         1 1      0.0000
    41 H16B     2.4221   2.8810  -0.6685   H         1 1      0.0000
@<TRIPOS>BOND
     1     1     2   ar
     2     1     6   ar
     3     1    29    1
     4     2     3   ar
     5     2     7    1
     6     3     4   ar
     7     3    30    1
     8     4     5   ar
     9     4     8    1
    10     5     6   ar
    11     5     9    1
    12     6    10    1
    13     8    11    1
    14     8    12    1
    15     8    28    1
    16    11    13    1
    17    11    26    1
    18    11    27    1
    19    13    14    1
    20    14    15    1
    21    14    16    1
    22    14    31    1
    23    16    17    1
    24    16    20    2
    25    17    18    1
    26    17    19    1
    27    17    32    1
    28    20    21    1
    29    20    22    1
    30    22    23    1
    31    22    24    1
    32    22    25    1
    33    32    33    1
    34    32    34    1
    35    13    35    1
    36    35    36    1
    37    13    37    1
    38    32    38    1
    39    38    39    1
    40    38    40    1
    41    38    41    1
@<TRIPOS>SUBSTRUCTURE
     1 1           1 GROUP             0 ****  ****    0  
@<TRIPOS>MOLECULE
Molecule Name_00001_00381
    41    41     1     0     0
SMALL
NO_CHARGES
****
Generated from the CSD

@<TRIPOS>ATOM
     1 C5      -4.5815  -1.1903   0.7126   C.ar      1 1      0.0000
     2 C4      -4.0207  -0.3459   1.6464   C.ar      1 1      0.0000
     3 C3      -2.9835   0.4983   1.2867   C.ar      1 1      0.0000
     4 C8      -2.4944   0.5098  -0.0105   C.ar      1 1      0.0000
     5 C7      -3.0671  -0.3457  -0.9390   C.ar      1 1      0.0000
     6 C6      -4.1044  -1.1904  -0.5803   C.ar      1 1      0.0000
     7 H4      -4.3927  -0.3426   2.6657   H         1 1      0.0000
     8 C9      -1.3616   1.4279  -0.4014   C.3       1 1      0.0000
     9 H7      -2.6982  -0.3536  -1.9593   H         1 1      0.0000
    10 H6      -4.5424  -1.8536  -1.3189   H         1 1      0.0000
    11 C10      0.0171   0.8214  -0.1478   C.3       1 1      0.0000
    12 H9A     -1.4534   1.6728  -1.4667   H         1 1      0.0000
    13 C11      1.1958   1.7046  -0.5241   C.3       1 1      0.0000
    14 C12      2.2298   0.9504  -1.3529   C.3       1 1      0.0000
    15 H12A     2.9917   1.6569  -1.7048   H         1 1      0.0000
    16 C13      2.9003  -0.1495  -0.5873   C.2       1 1      0.0000
    17 C14      3.9228   0.2437   0.4362   C.3       1 1      0.0000
    18 H14B     4.4240   1.1596   0.0995   H         1 1      0.0000
    19 H14A     4.6838  -0.5431   0.5071   H         1 1      0.0000
    20 N        2.5828  -1.4109  -0.8007   N.pl3     1 1      0.0000
    21 HN       1.8132  -1.5824  -1.4476   H         1 1      0.0000
    22 C        3.1230  -2.5727  -0.1098   C.3       1 1      0.0000
    23 H1A      2.3619  -3.3416   0.0049   H         1 1      0.0000
    24 H1C      3.9547  -2.9997  -0.6663   H         1 1      0.0000
    25 H1B      3.4824  -2.3011   0.8805   H         1 1      0.0000
    26 H10A     0.0956   0.5765   0.9186   H         1 1      0.0000
    27 H10B     0.0925  -0.1155  -0.7134   H         1 1      0.0000
    28 H9B     -1.4498   2.3632   0.1650   H         1 1      0.0000
    29 H5      -5.3943  -1.8517   0.9940   H         1 1      0.0000
    30 H3      -2.5483   1.1590   2.0293   H         1 1      0.0000
    31 H12B     1.7381   0.5229  -2.2354   H         1 1      0.0000
    32 C15      3.3352   0.4872   1.8140   C.3       1 1      0.0000
    33 H15A     2.8100  -0.4168   2.1460   H         1 1      0.0000
    34 H15C     2.5991   1.2983   1.7530   H         1 1      0.0000
    35 OH       0.7178   2.8232  -1.2764   O.3       1 1      0.0000
    36 OH1      0.2403   3.4462  -0.6749   H         1 1      0.0000
    37 H22      1.6758   2.0708   0.3967   H         1 1      0.0000
    38 C16      4.3898   0.8503   2.8337   C.3       1 1      0.0000
    39 H16C     4.9135   1.7578   2.5405   H         1 1      0.0000
    40 H16A     3.9404   1.0187   3.8101   H         1 1      0.0000
    41 H16B     5.1230   0.0524   2.9311   H         1 1      0.0000
@<TRIPOS>BOND
     1     1     2   ar
     2     1     6   ar
     3     1    29    1
     4     2     3   ar
     5     2     7    1
     6     3     4   ar
     7     3    30    1
     8     4     5   ar
     9     4     8    1
    10     5     6   ar
    11     5     9    1
    12     6    10    1
    13     8    11    1
    14     8    12    1
    15     8    28    1
    16    11    13    1
    17    11    26    1
    18    11    27    1
    19    13    14    1
    20    14    15    1
    21    14    16    1
    22    14    31    1
    23    16    17    1
    24    16    20    2
    25    17    18    1
    26    17    19    1
    27    17    32    1
    28    20    21    1
    29    20    22    1
    30    22    23    1
    31    22    24    1
    32    22    25    1
    33    32    33    1
    34    32    34    1
    35    13    35    1
    36    35    36    1
    37    13    37    1
    38    32    38    1
    39    38    39    1
    40    38    40    1
    41    38    41    1
@<TRIPOS>SUBSTRUCTURE
     1 1           1 GROUP             0 ****  ****    0  
@<TRIPOS>MOLECULE
Molecule Name_00001_00382
    41    41     1     0     0
SMALL
NO_CHARGES
****
Generated from the CSD

@<TRIPOS>ATOM
     1 C5      -4.8744  -1.3334   0.0676   C.ar      1 1      0.0000
     2 C4      -4.3979  -0.8194   1.2543   C.ar      1 1      0.0000
     3 C3      -3.3415   0.0761   1.2502   C.ar      1 1      0.0000
     4 C8      -2.7487   0.4696   0.0603   C.ar      1 1      0.0000
     5 C7      -3.2374  -0.0564  -1.1258   C.ar      1 1      0.0000
     6 C6      -4.2938  -0.9519  -1.1227   C.ar      1 1      0.0000
     7 H4      -4.8515  -1.1170   2.1940   H         1 1      0.0000
     8 C9      -1.5951   1.4432   0.0564   C.3       1 1      0.0000
     9 H7      -2.7867   0.2372  -2.0680   H         1 1      0.0000
    10 H6      -4.6652  -1.3542  -2.0594   H         1 1      0.0000
    11 C10     -0.2368   0.7650   0.2243   C.3       1 1      0.0000
    12 H9A     -1.6018   1.9994  -0.8892   H         1 1      0.0000
    13 C11      0.9617   1.7002   0.2275   C.3       1 1      0.0000
    14 C12      2.0654   1.2132  -0.7050   C.3       1 1      0.0000
    15 H12A     2.8167   2.0049  -0.8153   H         1 1      0.0000
    16 C13      2.7372  -0.0322  -0.2120   C.2       1 1      0.0000
    17 C14      3.6465   0.0950   0.9733   C.3       1 1      0.0000
    18 H14B     3.7087  -0.8784   1.4754   H         1 1      0.0000
    19 H14A     3.2135   0.8078   1.6856   H         1 1      0.0000
    20 N        2.5163  -1.1938  -0.7945   N.pl3     1 1      0.0000
    21 HN       1.8142  -1.2048  -1.5342   H         1 1      0.0000
    22 C        3.0684  -2.4824  -0.4025   C.3       1 1      0.0000
    23 H1A      2.4861  -3.2970  -0.8280   H         1 1      0.0000
    24 H1C      4.0950  -2.5831  -0.7486   H         1 1      0.0000
    25 H1B      3.0640  -2.5918   0.6799   H         1 1      0.0000
    26 H10A    -0.2433   0.2088   1.1699   H         1 1      0.0000
    27 H10B    -0.1084   0.0409  -0.5897   H         1 1      0.0000
    28 H9B     -1.7362   2.1658   0.8696   H         1 1      0.0000
    29 H5      -5.7022  -2.0347   0.0705   H         1 1      0.0000
    30 H3      -2.9733   0.4747   2.1897   H         1 1      0.0000
    31 H12B     1.6368   1.0195  -1.6960   H         1 1      0.0000
    32 C15      5.0489   0.5485   0.6123   C.3       1 1      0.0000
    33 H15A     4.9939   1.5210   0.1077   H         1 1      0.0000
    34 H15C     5.4891  -0.1688  -0.0913   H         1 1      0.0000
    35 OH       0.5377   3.0015  -0.1879   O.3       1 1      0.0000
    36 OH1      0.0445   3.4393   0.5491   H         1 1      0.0000
    37 H22      1.3623   1.7635   1.2511   H         1 1      0.0000
    38 C16      5.9447   0.6687   1.8234   C.3       1 1      0.0000
    39 H16C     6.0355  -0.2886   2.3325   H         1 1      0.0000
    40 H16A     6.9417   0.9949   1.5348   H         1 1      0.0000
    41 H16B     5.5428   1.3917   2.5301   H         1 1      0.0000
@<TRIPOS>BOND
     1     1     2   ar
     2     1     6   ar
     3     1    29    1
     4     2     3   ar
     5     2     7    1
     6     3     4   ar
     7     3    30    1
     8     4     5   ar
     9     4     8    1
    10     5     6   ar
    11     5     9    1
    12     6    10    1
    13     8    11    1
    14     8    12    1
    15     8    28    1
    16    11    13    1
    17    11    26    1
    18    11    27    1
    19    13    14    1
    20    14    15    1
    21    14    16    1
    22    14    31    1
    23    16    17    1
    24    16    20    2
    25    17    18    1
    26    17    19    1
    27    17    32    1
    28    20    21    1
    29    20    22    1
    30    22    23    1
    31    22    24    1
    32    22    25    1
    33    32    33    1
    34    32    34    1
    35    13    35    1
    36    35    36    1
    37    13    37    1
    38    32    38    1
    39    38    39    1
    40    38    40    1
    41    38    41    1
@<TRIPOS>SUBSTRUCTURE
     1 1           1 GROUP             0 ****  ****    0  
@<TRIPOS>MOLECULE
Molecule Name_00001_00383
    41    41     1     0     0
SMALL
NO_CHARGES
****
Generated from the CSD

@<TRIPOS>ATOM
     1 C5      -4.4702   1.7753  -0.2567   C.ar      1 1      0.0000
     2 C4      -4.1193   0.8615  -1.2269   C.ar      1 1      0.0000
     3 C3      -3.1436  -0.0869  -0.9689   C.ar      1 1      0.0000
     4 C8      -2.5073  -0.1345   0.2620   C.ar      1 1      0.0000
     5 C7      -2.8694   0.7915   1.2281   C.ar      1 1      0.0000
     6 C6      -3.8450   1.7404   0.9710   C.ar      1 1      0.0000
     7 H4      -4.6084   0.8853  -2.1951   H         1 1      0.0000
     8 C9      -1.4416  -1.1664   0.5417   C.3       1 1      0.0000
     9 H7      -2.3826   0.7726   2.1976   H         1 1      0.0000
    10 H6      -4.1176   2.4579   1.7379   H         1 1      0.0000
    11 C10     -0.0457  -0.7191   0.1123   C.3       1 1      0.0000
    12 H9A     -1.4313  -1.3852   1.6166   H         1 1      0.0000
    13 C11      1.0674  -1.7217   0.3712   C.3       1 1      0.0000
    14 C12      2.2866  -1.0654   1.0096   C.3       1 1      0.0000
    15 H12A     2.9162  -1.8418   1.4615   H         1 1      0.0000
    16 C13      3.1059  -0.2812   0.0302   C.2       1 1      0.0000
    17 C14      2.5932   1.0674  -0.3775   C.3       1 1      0.0000
    18 H14B     1.5095   0.9996  -0.5337   H         1 1      0.0000
    19 H14A     3.0483   1.3528  -1.3338   H         1 1      0.0000
    20 N        4.2420  -0.7605  -0.4356   N.pl3     1 1      0.0000
    21 HN       4.5606  -1.6430  -0.0358   H         1 1      0.0000
    22 C        5.1528  -0.0977  -1.3577   C.3       1 1      0.0000
    23 H1A      6.1858  -0.3497  -1.1272   H         1 1      0.0000
    24 H1C      4.9509  -0.4006  -2.3830   H         1 1      0.0000
    25 H1B      5.0458   0.9832  -1.2969   H         1 1      0.0000
    26 H10A    -0.0691  -0.4990  -0.9621   H         1 1      0.0000
    27 H10B     0.1973   0.2114   0.6400   H         1 1      0.0000
    28 H9B     -1.6971  -2.0940   0.0147   H         1 1      0.0000
    29 H5      -5.2347   2.5183  -0.4583   H         1 1      0.0000
    30 H3      -2.8740  -0.8015  -1.7395   H         1 1      0.0000
    31 H12B     1.9535  -0.3966   1.8128   H         1 1      0.0000
    32 C15      2.8719   2.1535   0.6451   C.3       1 1      0.0000
    33 H15A     3.9544   2.2254   0.8077   H         1 1      0.0000
    34 H15C     2.4080   1.8765   1.5998   H         1 1      0.0000
    35 OH       0.5778  -2.7464   1.2407   O.3       1 1      0.0000
    36 OH1     -0.0239  -3.3479   0.7365   H         1 1      0.0000
    37 H22      1.3677  -2.1766  -0.5854   H         1 1      0.0000
    38 C16      2.3456   3.5019   0.2107   C.3       1 1      0.0000
    39 H16C     1.2683   3.4659   0.0627   H         1 1      0.0000
    40 H16A     2.5594   4.2595   0.9617   H         1 1      0.0000
    41 H16B     2.8060   3.8125  -0.7248   H         1 1      0.0000
@<TRIPOS>BOND
     1     1     2   ar
     2     1     6   ar
     3     1    29    1
     4     2     3   ar
     5     2     7    1
     6     3     4   ar
     7     3    30    1
     8     4     5   ar
     9     4     8    1
    10     5     6   ar
    11     5     9    1
    12     6    10    1
    13     8    11    1
    14     8    12    1
    15     8    28    1
    16    11    13    1
    17    11    26    1
    18    11    27    1
    19    13    14    1
    20    14    15    1
    21    14    16    1
    22    14    31    1
    23    16    17    1
    24    16    20    2
    25    17    18    1
    26    17    19    1
    27    17    32    1
    28    20    21    1
    29    20    22    1
    30    22    23    1
    31    22    24    1
    32    22    25    1
    33    32    33    1
    34    32    34    1
    35    13    35    1
    36    35    36    1
    37    13    37    1
    38    32    38    1
    39    38    39    1
    40    38    40    1
    41    38    41    1
@<TRIPOS>SUBSTRUCTURE
     1 1           1 GROUP             0 ****  ****    0  
@<TRIPOS>MOLECULE
Molecule Name_00001_00384
    41    41     1     0     0
SMALL
NO_CHARGES
****
Generated from the CSD

@<TRIPOS>ATOM
     1 C5      -4.0909   1.6480  -0.8067   C.ar      1 1      0.0000
     2 C4      -3.7499   0.5170  -1.5165   C.ar      1 1      0.0000
     3 C3      -3.0631  -0.5130  -0.8957   C.ar      1 1      0.0000
     4 C8      -2.7094  -0.4259   0.4420   C.ar      1 1      0.0000
     5 C7      -3.0579   0.7182   1.1433   C.ar      1 1      0.0000
     6 C6      -3.7447   1.7487   0.5234   C.ar      1 1      0.0000
     7 H4      -4.0200   0.4333  -2.5640   H         1 1      0.0000
     8 C9      -1.9579  -1.5474   1.1175   C.3       1 1      0.0000
     9 H7      -2.7892   0.8072   2.1907   H         1 1      0.0000
    10 H6      -4.0107   2.6374   1.0862   H         1 1      0.0000
    11 C10     -0.5736  -1.1307   1.6105   C.3       1 1      0.0000
    12 H9A     -2.5468  -1.9077   1.9699   H         1 1      0.0000
    13 C11      0.4451  -0.8395   0.5203   C.3       1 1      0.0000
    14 C12      1.7903  -0.4137   1.0982   C.3       1 1      0.0000
    15 H12A     2.2082  -1.2429   1.6823   H         1 1      0.0000
    16 C13      2.7769  -0.0133   0.0437   C.2       1 1      0.0000
    17 C14      3.0321   1.4520  -0.1445   C.3       1 1      0.0000
    18 H14B     2.0797   1.9894  -0.0565   H         1 1      0.0000
    19 H14A     3.4171   1.6244  -1.1570   H         1 1      0.0000
    20 N        3.4046  -0.9238  -0.6736   N.pl3     1 1      0.0000
    21 HN       3.2398  -1.8971  -0.4171   H         1 1      0.0000
    22 C        4.4084  -0.6825  -1.6999   C.3       1 1      0.0000
    23 H1A      5.1587  -1.4704  -1.6981   H         1 1      0.0000
    24 H1C      3.9510  -0.6525  -2.6866   H         1 1      0.0000
    25 H1B      4.9129   0.2665  -1.5318   H         1 1      0.0000
    26 H10A    -0.6838  -0.2316   2.2292   H         1 1      0.0000
    27 H10B    -0.1782  -1.9305   2.2487   H         1 1      0.0000
    28 H9B     -1.8497  -2.3796   0.4110   H         1 1      0.0000
    29 H5      -4.6292   2.4551  -1.2927   H         1 1      0.0000
    30 H3      -2.7986  -1.3991  -1.4632   H         1 1      0.0000
    31 H12B     1.6352   0.4307   1.7811   H         1 1      0.0000
    32 C15      4.0121   2.0281   0.8607   C.3       1 1      0.0000
    33 H15A     4.9667   1.4936   0.7794   H         1 1      0.0000
    34 H15C     3.6243   1.8675   1.8742   H         1 1      0.0000
    35 OH       0.6272  -2.0158  -0.2728   O.3       1 1      0.0000
    36 OH1     -0.2255  -2.2516  -0.7146   H         1 1      0.0000
    37 H22      0.0608  -0.0310  -0.1207   H         1 1      0.0000
    38 C16      4.2519   3.5051   0.6496   C.3       1 1      0.0000
    39 H16C     3.3235   4.0642   0.7463   H         1 1      0.0000
    40 H16A     4.9573   3.8901   1.3830   H         1 1      0.0000
    41 H16B     4.6583   3.6920  -0.3422   H         1 1      0.0000
@<TRIPOS>BOND
     1     1     2   ar
     2     1     6   ar
     3     1    29    1
     4     2     3   ar
     5     2     7    1
     6     3     4   ar
     7     3    30    1
     8     4     5   ar
     9     4     8    1
    10     5     6   ar
    11     5     9    1
    12     6    10    1
    13     8    11    1
    14     8    12    1
    15     8    28    1
    16    11    13    1
    17    11    26    1
    18    11    27    1
    19    13    14    1
    20    14    15    1
    21    14    16    1
    22    14    31    1
    23    16    17    1
    24    16    20    2
    25    17    18    1
    26    17    19    1
    27    17    32    1
    28    20    21    1
    29    20    22    1
    30    22    23    1
    31    22    24    1
    32    22    25    1
    33    32    33    1
    34    32    34    1
    35    13    35    1
    36    35    36    1
    37    13    37    1
    38    32    38    1
    39    38    39    1
    40    38    40    1
    41    38    41    1
@<TRIPOS>SUBSTRUCTURE
     1 1           1 GROUP             0 ****  ****    0  
@<TRIPOS>MOLECULE
Molecule Name_00001_00385
    41    41     1     0     0
SMALL
NO_CHARGES
****
Generated from the CSD

@<TRIPOS>ATOM
     1 C5      -3.7358   2.0351  -0.2367   C.ar      1 1      0.0000
     2 C4      -3.3879   1.2090  -1.2836   C.ar      1 1      0.0000
     3 C3      -2.7890  -0.0147  -1.0347   C.ar      1 1      0.0000
     4 C8      -2.5311  -0.4282   0.2632   C.ar      1 1      0.0000
     5 C7      -2.8853   0.4134   1.3064   C.ar      1 1      0.0000
     6 C6      -3.4842   1.6373   1.0586   C.ar      1 1      0.0000
     7 H4      -3.5837   1.5180  -2.3051   H         1 1      0.0000
     8 C9      -1.8754  -1.7607   0.5340   C.3       1 1      0.0000
     9 H7      -2.6908   0.1095   2.3297   H         1 1      0.0000
    10 H6      -3.7560   2.2844   1.8860   H         1 1      0.0000
    11 C10     -0.5157  -1.6324   1.2180   C.3       1 1      0.0000
    12 H9A     -2.5387  -2.3616   1.1682   H         1 1      0.0000
    13 C11      0.5907  -1.0389   0.3608   C.3       1 1      0.0000
    14 C12      1.9055  -0.9297   1.1251   C.3       1 1      0.0000
    15 H12A     2.2469  -1.9362   1.3968   H         1 1      0.0000
    16 C13      2.9815  -0.2449   0.3385   C.2       1 1      0.0000
    17 C14      3.3066   1.1734   0.6998   C.3       1 1      0.0000
    18 H14B     4.3354   1.3897   0.3864   H         1 1      0.0000
    19 H14A     3.2616   1.2878   1.7897   H         1 1      0.0000
    20 N        3.6241  -0.8803  -0.6210   N.pl3     1 1      0.0000
    21 HN       3.4032  -1.8691  -0.7382   H         1 1      0.0000
    22 C        4.7089  -0.3550  -1.4373   C.3       1 1      0.0000
    23 H1A      5.2723  -1.1643  -1.8970   H         1 1      0.0000
    24 H1C      4.3213   0.2810  -2.2303   H         1 1      0.0000
    25 H1B      5.3951   0.2360  -0.8345   H         1 1      0.0000
    26 H10A    -0.6358  -1.0051   2.1098   H         1 1      0.0000
    27 H10B    -0.1995  -2.6292   1.5494   H         1 1      0.0000
    28 H9B     -1.7481  -2.2945  -0.4159   H         1 1      0.0000
    29 H5      -4.2052   2.9937  -0.4313   H         1 1      0.0000
    30 H3      -2.5184  -0.6576  -1.8657   H         1 1      0.0000
    31 H12B     1.7338  -0.3733   2.0548   H         1 1      0.0000
    32 C15      2.3777   2.1877   0.0586   C.3       1 1      0.0000
    33 H15A     1.3463   1.9760   0.3664   H         1 1      0.0000
    34 H15C     2.4291   2.0837  -1.0322   H         1 1      0.0000
    35 OH       0.7844  -1.8679  -0.7886   O.3       1 1      0.0000
    36 OH1     -0.0373  -1.8670  -1.3388   H         1 1      0.0000
    37 H22      0.2861  -0.0337   0.0306   H         1 1      0.0000
    38 C16      2.7263   3.6083   0.4383   C.3       1 1      0.0000
    39 H16C     3.7388   3.8539   0.1250   H         1 1      0.0000
    40 H16A     2.0449   4.3123  -0.0349   H         1 1      0.0000
    41 H16B     2.6620   3.7464   1.5156   H         1 1      0.0000
@<TRIPOS>BOND
     1     1     2   ar
     2     1     6   ar
     3     1    29    1
     4     2     3   ar
     5     2     7    1
     6     3     4   ar
     7     3    30    1
     8     4     5   ar
     9     4     8    1
    10     5     6   ar
    11     5     9    1
    12     6    10    1
    13     8    11    1
    14     8    12    1
    15     8    28    1
    16    11    13    1
    17    11    26    1
    18    11    27    1
    19    13    14    1
    20    14    15    1
    21    14    16    1
    22    14    31    1
    23    16    17    1
    24    16    20    2
    25    17    18    1
    26    17    19    1
    27    17    32    1
    28    20    21    1
    29    20    22    1
    30    22    23    1
    31    22    24    1
    32    22    25    1
    33    32    33    1
    34    32    34    1
    35    13    35    1
    36    35    36    1
    37    13    37    1
    38    32    38    1
    39    38    39    1
    40    38    40    1
    41    38    41    1
@<TRIPOS>SUBSTRUCTURE
     1 1           1 GROUP             0 ****  ****    0  
@<TRIPOS>MOLECULE
Molecule Name_00001_00386
    41    41     1     0     0
SMALL
NO_CHARGES
****
Generated from the CSD

@<TRIPOS>ATOM
     1 C5      -4.3607  -1.0906  -0.9244   C.ar      1 1      0.0000
     2 C4      -4.8137  -0.2061   0.0304   C.ar      1 1      0.0000
     3 C3      -3.9410   0.7007   0.6084   C.ar      1 1      0.0000
     4 C8      -2.6052   0.7353   0.2389   C.ar      1 1      0.0000
     5 C7      -2.1631  -0.1610  -0.7219   C.ar      1 1      0.0000
     6 C6      -3.0350  -1.0682  -1.3005   C.ar      1 1      0.0000
     7 H4      -5.8564  -0.2202   0.3300   H         1 1      0.0000
     8 C9      -1.6535   1.7217   0.8716   C.3       1 1      0.0000
     9 H7      -1.1211  -0.1517  -1.0243   H         1 1      0.0000
    10 H6      -2.6736  -1.7628  -2.0516   H         1 1      0.0000
    11 C10     -0.6504   1.0653   1.8181   C.3       1 1      0.0000
    12 H9A     -1.1058   2.2464   0.0790   H         1 1      0.0000
    13 C11      0.4242   0.2253   1.1469   C.3       1 1      0.0000
    14 C12      1.3679   1.0765   0.3045   C.3       1 1      0.0000
    15 H12A     1.8619   1.8116   0.9518   H         1 1      0.0000
    16 C13      2.4129   0.2652  -0.3992   C.2       1 1      0.0000
    17 C14      3.7617   0.8911  -0.5910   C.3       1 1      0.0000
    18 H14B     3.6257   1.9482  -0.8506   H         1 1      0.0000
    19 H14A     4.2684   0.4058  -1.4342   H         1 1      0.0000
    20 N        2.1513  -0.9583  -0.8140   N.pl3     1 1      0.0000
    21 HN       1.2394  -1.3384  -0.5610   H         1 1      0.0000
    22 C        3.0750  -1.8687  -1.4751   C.3       1 1      0.0000
    23 H1A      2.8802  -2.8975  -1.1795   H         1 1      0.0000
    24 H1C      2.9740  -1.8020  -2.5563   H         1 1      0.0000
    25 H1B      4.1044  -1.6307  -1.2160   H         1 1      0.0000
    26 H10A    -0.1585   1.8540   2.4007   H         1 1      0.0000
    27 H10B    -1.2023   0.4260   2.5182   H         1 1      0.0000
    28 H9B     -2.2330   2.4689   1.4278   H         1 1      0.0000
    29 H5      -5.0441  -1.8010  -1.3777   H         1 1      0.0000
    30 H3      -4.3072   1.3926   1.3597   H         1 1      0.0000
    31 H12B     0.7824   1.6286  -0.4411   H         1 1      0.0000
    32 C15      4.6494   0.8003   0.6364   C.3       1 1      0.0000
    33 H15A     4.7881  -0.2547   0.9028   H         1 1      0.0000
    34 H15C     4.1504   1.2951   1.4788   H         1 1      0.0000
    35 OH       1.1794  -0.4550   2.1533   O.3       1 1      0.0000
    36 OH1      0.5762  -1.0277   2.6883   H         1 1      0.0000
    37 H22     -0.0594  -0.5200   0.4966   H         1 1      0.0000
    38 C16      6.0019   1.4379   0.4172   C.3       1 1      0.0000
    39 H16C     5.8959   2.4926   0.1722   H         1 1      0.0000
    40 H16A     6.6156   1.3578   1.3120   H         1 1      0.0000
    41 H16B     6.5297   0.9514  -0.4004   H         1 1      0.0000
@<TRIPOS>BOND
     1     1     2   ar
     2     1     6   ar
     3     1    29    1
     4     2     3   ar
     5     2     7    1
     6     3     4   ar
     7     3    30    1
     8     4     5   ar
     9     4     8    1
    10     5     6   ar
    11     5     9    1
    12     6    10    1
    13     8    11    1
    14     8    12    1
    15     8    28    1
    16    11    13    1
    17    11    26    1
    18    11    27    1
    19    13    14    1
    20    14    15    1
    21    14    16    1
    22    14    31    1
    23    16    17    1
    24    16    20    2
    25    17    18    1
    26    17    19    1
    27    17    32    1
    28    20    21    1
    29    20    22    1
    30    22    23    1
    31    22    24    1
    32    22    25    1
    33    32    33    1
    34    32    34    1
    35    13    35    1
    36    35    36    1
    37    13    37    1
    38    32    38    1
    39    38    39    1
    40    38    40    1
    41    38    41    1
@<TRIPOS>SUBSTRUCTURE
     1 1           1 GROUP             0 ****  ****    0  
@<TRIPOS>MOLECULE
Molecule Name_00001_00387
    41    41     1     0     0
SMALL
NO_CHARGES
****
Generated from the CSD

@<TRIPOS>ATOM
     1 C5      -4.2593  -0.1606  -1.4471   C.ar      1 1      0.0000
     2 C4      -4.7397   0.0916  -0.1802   C.ar      1 1      0.0000
     3 C3      -3.8688   0.4490   0.8356   C.ar      1 1      0.0000
     4 C8      -2.5074   0.5597   0.5977   C.ar      1 1      0.0000
     5 C7      -2.0380   0.3019  -0.6811   C.ar      1 1      0.0000
     6 C6      -2.9081  -0.0556  -1.6975   C.ar      1 1      0.0000
     7 H4      -5.8025   0.0098   0.0219   H         1 1      0.0000
     8 C9      -1.5581   0.9462   1.7060   C.3       1 1      0.0000
     9 H7      -0.9759   0.3813  -0.8881   H         1 1      0.0000
    10 H6      -2.5252  -0.2535  -2.6932   H         1 1      0.0000
    11 C10     -0.6727  -0.2095   2.1681   C.3       1 1      0.0000
    12 H9A     -0.9198   1.7676   1.3577   H         1 1      0.0000
    13 C11      0.4056  -0.6366   1.1853   C.3       1 1      0.0000
    14 C12      1.4597   0.4477   0.9911   C.3       1 1      0.0000
    15 H12A     1.9388   0.6587   1.9552   H         1 1      0.0000
    16 C13      2.5128   0.0649  -0.0039   C.2       1 1      0.0000
    17 C14      3.9049   0.5683   0.2337   C.3       1 1      0.0000
    18 H14B     4.6125  -0.1030  -0.2682   H         1 1      0.0000
    19 H14A     4.1223   0.5351   1.3083   H         1 1      0.0000
    20 N        2.2195  -0.7007  -1.0360   N.pl3     1 1      0.0000
    21 HN       1.2706  -1.0730  -1.0703   H         1 1      0.0000
    22 C        3.1428  -1.1783  -2.0550   C.3       1 1      0.0000
    23 H1A      2.7187  -2.0227  -2.5944   H         1 1      0.0000
    24 H1C      3.3624  -0.3924  -2.7747   H         1 1      0.0000
    25 H1B      4.0810  -1.4987  -1.6071   H         1 1      0.0000
    26 H10A    -0.1876   0.0818   3.1079   H         1 1      0.0000
    27 H10B    -1.3138  -1.0750   2.3760   H         1 1      0.0000
    28 H9B     -2.1393   1.3144   2.5604   H         1 1      0.0000
    29 H5      -4.9413  -0.4405  -2.2432   H         1 1      0.0000
    30 H3      -4.2567   0.6450   1.8297   H         1 1      0.0000
    31 H12B     0.9679   1.3686   0.6542   H         1 1      0.0000
    32 C15      4.1303   1.9813  -0.2717   C.3       1 1      0.0000
    33 H15A     3.4241   2.6580   0.2250   H         1 1      0.0000
    34 H15C     3.9248   2.0153  -1.3488   H         1 1      0.0000
    35 OH       1.0380  -1.8225   1.6747   O.3       1 1      0.0000
    36 OH1      0.3629  -2.5375   1.7802   H         1 1      0.0000
    37 H22     -0.0635  -0.8555   0.2136   H         1 1      0.0000
    38 C16      5.5399   2.4646  -0.0203   C.3       1 1      0.0000
    39 H16C     6.2625   1.8232  -0.5204   H         1 1      0.0000
    40 H16A     5.6721   3.4785  -0.3922   H         1 1      0.0000
    41 H16B     5.7643   2.4622   1.0443   H         1 1      0.0000
@<TRIPOS>BOND
     1     1     2   ar
     2     1     6   ar
     3     1    29    1
     4     2     3   ar
     5     2     7    1
     6     3     4   ar
     7     3    30    1
     8     4     5   ar
     9     4     8    1
    10     5     6   ar
    11     5     9    1
    12     6    10    1
    13     8    11    1
    14     8    12    1
    15     8    28    1
    16    11    13    1
    17    11    26    1
    18    11    27    1
    19    13    14    1
    20    14    15    1
    21    14    16    1
    22    14    31    1
    23    16    17    1
    24    16    20    2
    25    17    18    1
    26    17    19    1
    27    17    32    1
    28    20    21    1
    29    20    22    1
    30    22    23    1
    31    22    24    1
    32    22    25    1
    33    32    33    1
    34    32    34    1
    35    13    35    1
    36    35    36    1
    37    13    37    1
    38    32    38    1
    39    38    39    1
    40    38    40    1
    41    38    41    1
@<TRIPOS>SUBSTRUCTURE
     1 1           1 GROUP             0 ****  ****    0  
@<TRIPOS>MOLECULE
Molecule Name_00001_00388
    41    41     1     0     0
SMALL
NO_CHARGES
****
Generated from the CSD

@<TRIPOS>ATOM
     1 C5      -4.2390   0.3797  -1.4292   C.ar      1 1      0.0000
     2 C4      -4.7136   0.2675  -0.1402   C.ar      1 1      0.0000
     3 C3      -3.8346   0.2950   0.9295   C.ar      1 1      0.0000
     4 C8      -2.4706   0.4356   0.7246   C.ar      1 1      0.0000
     5 C7      -2.0071   0.5461  -0.5774   C.ar      1 1      0.0000
     6 C6      -2.8854   0.5188  -1.6478   C.ar      1 1      0.0000
     7 H4      -5.7784   0.1575   0.0368   H         1 1      0.0000
     8 C9      -1.5125   0.4622   1.8908   C.3       1 1      0.0000
     9 H7      -0.9432   0.6554  -0.7599   H         1 1      0.0000
    10 H6      -2.5069   0.6071  -2.6609   H         1 1      0.0000
    11 C10     -0.6575  -0.7994   1.9939   C.3       1 1      0.0000
    12 H9A     -0.8530   1.3330   1.7899   H         1 1      0.0000
    13 C11      0.4101  -0.9515   0.9225   C.3       1 1      0.0000
    14 C12      1.4921   0.1161   1.0423   C.3       1 1      0.0000
    15 H12A     2.0362  -0.0290   1.9837   H         1 1      0.0000
    16 C13      2.4675   0.0872  -0.0949   C.2       1 1      0.0000
    17 C14      3.0975   1.3862  -0.4992   C.3       1 1      0.0000
    18 H14B     2.3373   2.1758  -0.4527   H         1 1      0.0000
    19 H14A     3.4370   1.3145  -1.5397   H         1 1      0.0000
    20 N        2.7669  -1.0457  -0.6984   N.pl3     1 1      0.0000
    21 HN       2.3629  -1.8932  -0.3000   H         1 1      0.0000
    22 C        3.7176  -1.2272  -1.7858   C.3       1 1      0.0000
    23 H1A      4.2226  -2.1871  -1.7002   H         1 1      0.0000
    24 H1C      3.2123  -1.1949  -2.7488   H         1 1      0.0000
    25 H1B      4.4730  -0.4444  -1.7736   H         1 1      0.0000
    26 H10A    -0.1658  -0.8038   2.9745   H         1 1      0.0000
    27 H10B    -1.3209  -1.6718   1.9476   H         1 1      0.0000
    28 H9B     -2.0846   0.5825   2.8190   H         1 1      0.0000
    29 H5      -4.9274   0.3585  -2.2676   H         1 1      0.0000
    30 H3      -4.2180   0.2053   1.9405   H         1 1      0.0000
    31 H12B     1.0171   1.1042   1.0803   H         1 1      0.0000
    32 C15      4.2708   1.7864   0.3760   C.3       1 1      0.0000
    33 H15A     5.0344   0.9998   0.3357   H         1 1      0.0000
    34 H15C     3.9319   1.8703   1.4160   H         1 1      0.0000
    35 OH       1.0114  -2.2435   1.0447   O.3       1 1      0.0000
    36 OH1      0.3180  -2.9415   0.9440   H         1 1      0.0000
    37 H22     -0.0637  -0.8689  -0.0679   H         1 1      0.0000
    38 C16      4.8875   3.0979  -0.0521   C.3       1 1      0.0000
    39 H16C     4.1569   3.9025  -0.0009   H         1 1      0.0000
    40 H16A     5.7246   3.3589   0.5920   H         1 1      0.0000
    41 H16B     5.2530   3.0366  -1.0750   H         1 1      0.0000
@<TRIPOS>BOND
     1     1     2   ar
     2     1     6   ar
     3     1    29    1
     4     2     3   ar
     5     2     7    1
     6     3     4   ar
     7     3    30    1
     8     4     5   ar
     9     4     8    1
    10     5     6   ar
    11     5     9    1
    12     6    10    1
    13     8    11    1
    14     8    12    1
    15     8    28    1
    16    11    13    1
    17    11    26    1
    18    11    27    1
    19    13    14    1
    20    14    15    1
    21    14    16    1
    22    14    31    1
    23    16    17    1
    24    16    20    2
    25    17    18    1
    26    17    19    1
    27    17    32    1
    28    20    21    1
    29    20    22    1
    30    22    23    1
    31    22    24    1
    32    22    25    1
    33    32    33    1
    34    32    34    1
    35    13    35    1
    36    35    36    1
    37    13    37    1
    38    32    38    1
    39    38    39    1
    40    38    40    1
    41    38    41    1
@<TRIPOS>SUBSTRUCTURE
     1 1           1 GROUP             0 ****  ****    0  
@<TRIPOS>MOLECULE
Molecule Name_00001_00389
    41    41     1     0     0
SMALL
NO_CHARGES
****
Generated from the CSD

@<TRIPOS>ATOM
     1 C5      -3.8858   1.2042  -1.1871   C.ar      1 1      0.0000
     2 C4      -4.4529   0.6046  -0.0834   C.ar      1 1      0.0000
     3 C3      -3.6487   0.1133   0.9314   C.ar      1 1      0.0000
     4 C8      -2.2682   0.2157   0.8563   C.ar      1 1      0.0000
     5 C7      -1.7113   0.8201  -0.2603   C.ar      1 1      0.0000
     6 C6      -2.5146   1.3118  -1.2757   C.ar      1 1      0.0000
     7 H4      -5.5318   0.5173  -0.0094   H         1 1      0.0000
     8 C9      -1.3918  -0.3229   1.9611   C.3       1 1      0.0000
     9 H7      -0.6329   0.9091  -0.3397   H         1 1      0.0000
    10 H6      -2.0635   1.7827  -2.1428   H         1 1      0.0000
    11 C10     -0.6199  -1.5775   1.5572   C.3       1 1      0.0000
    12 H9A     -0.6780   0.4545   2.2603   H         1 1      0.0000
    13 C11      0.5078  -1.3557   0.5622   C.3       1 1      0.0000
    14 C12      1.6387  -0.5260   1.1601   C.3       1 1      0.0000
    15 H12A     2.1081  -1.0931   1.9734   H         1 1      0.0000
    16 C13      2.6862  -0.1579   0.1537   C.2       1 1      0.0000
    17 C14      3.4160   1.1360   0.3564   C.3       1 1      0.0000
    18 H14B     4.3896   1.0734  -0.1452   H         1 1      0.0000
    19 H14A     3.6040   1.2806   1.4273   H         1 1      0.0000
    20 N        2.9604  -0.9571  -0.8579   N.pl3     1 1      0.0000
    21 HN       2.4820  -1.8578  -0.8679   H         1 1      0.0000
    22 C        3.9710  -0.7459  -1.8841   C.3       1 1      0.0000
    23 H1A      4.2135  -1.6810  -2.3847   H         1 1      0.0000
    24 H1C      3.6170  -0.0419  -2.6344   H         1 1      0.0000
    25 H1B      4.8852  -0.3467  -1.4502   H         1 1      0.0000
    26 H10A    -0.1972  -2.0293   2.4631   H         1 1      0.0000
    27 H10B    -1.3277  -2.2948   1.1237   H         1 1      0.0000
    28 H9B     -2.0180  -0.5539   2.8317   H         1 1      0.0000
    29 H5      -4.5155   1.5895  -1.9823   H         1 1      0.0000
    30 H3      -4.1048  -0.3576   1.7960   H         1 1      0.0000
    31 H12B     1.2198   0.3915   1.5915   H         1 1      0.0000
    32 C15      2.6672   2.3419  -0.1801   C.3       1 1      0.0000
    33 H15A     1.6912   2.4094   0.3161   H         1 1      0.0000
    34 H15C     2.4877   2.2056  -1.2537   H         1 1      0.0000
    35 OH       1.0240  -2.6254   0.1532   O.3       1 1      0.0000
    36 OH1      0.3002  -3.1596  -0.2575   H         1 1      0.0000
    37 H22      0.1082  -0.8305  -0.3191   H         1 1      0.0000
    38 C16      3.4233   3.6323   0.0364   C.3       1 1      0.0000
    39 H16C     4.3888   3.6022  -0.4643   H         1 1      0.0000
    40 H16A     2.8636   4.4780  -0.3573   H         1 1      0.0000
    41 H16B     3.5966   3.8045   1.0966   H         1 1      0.0000
@<TRIPOS>BOND
     1     1     2   ar
     2     1     6   ar
     3     1    29    1
     4     2     3   ar
     5     2     7    1
     6     3     4   ar
     7     3    30    1
     8     4     5   ar
     9     4     8    1
    10     5     6   ar
    11     5     9    1
    12     6    10    1
    13     8    11    1
    14     8    12    1
    15     8    28    1
    16    11    13    1
    17    11    26    1
    18    11    27    1
    19    13    14    1
    20    14    15    1
    21    14    16    1
    22    14    31    1
    23    16    17    1
    24    16    20    2
    25    17    18    1
    26    17    19    1
    27    17    32    1
    28    20    21    1
    29    20    22    1
    30    22    23    1
    31    22    24    1
    32    22    25    1
    33    32    33    1
    34    32    34    1
    35    13    35    1
    36    35    36    1
    37    13    37    1
    38    32    38    1
    39    38    39    1
    40    38    40    1
    41    38    41    1
@<TRIPOS>SUBSTRUCTURE
     1 1           1 GROUP             0 ****  ****    0  
@<TRIPOS>MOLECULE
Molecule Name_00001_00390
    41    41     1     0     0
SMALL
NO_CHARGES
****
Generated from the CSD

@<TRIPOS>ATOM
     1 C5      -5.5003   0.1249  -0.0282   C.ar      1 1      0.0000
     2 C4      -4.7190  -0.7203  -0.7862   C.ar      1 1      0.0000
     3 C3      -3.3525  -0.7849  -0.5703   C.ar      1 1      0.0000
     4 C8      -2.7502  -0.0065   0.4061   C.ar      1 1      0.0000
     5 C7      -3.5482   0.8400   1.1602   C.ar      1 1      0.0000
     6 C6      -4.9147   0.9054   0.9451   C.ar      1 1      0.0000
     7 H4      -5.1754  -1.3364  -1.5538   H         1 1      0.0000
     8 C9      -1.2602  -0.0748   0.6389   C.3       1 1      0.0000
     9 H7      -3.0965   1.4590   1.9284   H         1 1      0.0000
    10 H6      -5.5257   1.5725   1.5442   H         1 1      0.0000
    11 C10     -0.4684   0.8737  -0.2592   C.3       1 1      0.0000
    12 H9A     -1.0522   0.1699   1.6878   H         1 1      0.0000
    13 C11      1.0393   0.8458  -0.0663   C.3       1 1      0.0000
    14 C12      1.6536  -0.4535  -0.5754   C.3       1 1      0.0000
    15 H12A     1.4764  -0.5350  -1.6549   H         1 1      0.0000
    16 C13      3.1265  -0.5430  -0.3143   C.2       1 1      0.0000
    17 C14      3.5641  -0.8225   1.0921   C.3       1 1      0.0000
    18 H14B     4.1857  -1.7264   1.0945   H         1 1      0.0000
    19 H14A     2.6818  -1.0259   1.7111   H         1 1      0.0000
    20 N        3.9956  -0.3978  -1.2946   N.pl3     1 1      0.0000
    21 HN       3.6094  -0.3023  -2.2337   H         1 1      0.0000
    22 C        5.4446  -0.4951  -1.1940   C.3       1 1      0.0000
    23 H1A      5.8653  -0.9329  -2.0969   H         1 1      0.0000
    24 H1C      5.8882   0.4888  -1.0562   H         1 1      0.0000
    25 H1B      5.7326  -1.1174  -0.3495   H         1 1      0.0000
    26 H10A    -0.6875   0.6229  -1.3044   H         1 1      0.0000
    27 H10B    -0.8213   1.8966  -0.0788   H         1 1      0.0000
    28 H9B     -0.9189  -1.1022   0.4618   H         1 1      0.0000
    29 H5      -6.5709   0.1755  -0.1968   H         1 1      0.0000
    30 H3      -2.7459  -1.4530  -1.1727   H         1 1      0.0000
    31 H12B     1.1528  -1.3003  -0.0902   H         1 1      0.0000
    32 C15      4.3531   0.3138   1.7159   C.3       1 1      0.0000
    33 H15A     5.2126   0.5488   1.0760   H         1 1      0.0000
    34 H15C     4.7401  -0.0092   2.6903   H         1 1      0.0000
    35 OH       1.6192   1.9463  -0.7722   O.3       1 1      0.0000
    36 OH1      1.2421   2.7940  -0.4299   H         1 1      0.0000
    37 H22      1.2640   0.9497   1.0065   H         1 1      0.0000
    38 C16      3.5186   1.5599   1.9020   C.3       1 1      0.0000
    39 H16C     2.5871   1.3274   2.4138   H         1 1      0.0000
    40 H16A     4.0552   2.2986   2.4937   H         1 1      0.0000
    41 H16B     3.2746   2.0077   0.9410   H         1 1      0.0000
@<TRIPOS>BOND
     1     1     2   ar
     2     1     6   ar
     3     1    29    1
     4     2     3   ar
     5     2     7    1
     6     3     4   ar
     7     3    30    1
     8     4     5   ar
     9     4     8    1
    10     5     6   ar
    11     5     9    1
    12     6    10    1
    13     8    11    1
    14     8    12    1
    15     8    28    1
    16    11    13    1
    17    11    26    1
    18    11    27    1
    19    13    14    1
    20    14    15    1
    21    14    16    1
    22    14    31    1
    23    16    17    1
    24    16    20    2
    25    17    18    1
    26    17    19    1
    27    17    32    1
    28    20    21    1
    29    20    22    1
    30    22    23    1
    31    22    24    1
    32    22    25    1
    33    32    33    1
    34    32    34    1
    35    13    35    1
    36    35    36    1
    37    13    37    1
    38    32    38    1
    39    38    39    1
    40    38    40    1
    41    38    41    1
@<TRIPOS>SUBSTRUCTURE
     1 1           1 GROUP             0 ****  ****    0  
@<TRIPOS>MOLECULE
Molecule Name_00001_00391
    41    41     1     0     0
SMALL
NO_CHARGES
****
Generated from the CSD

@<TRIPOS>ATOM
     1 C5      -5.5135   0.2869  -0.1232   C.ar      1 1      0.0000
     2 C4      -4.9155   1.4469   0.3197   C.ar      1 1      0.0000
     3 C3      -3.5410   1.5039   0.4792   C.ar      1 1      0.0000
     4 C8      -2.7471   0.4028   0.1973   C.ar      1 1      0.0000
     5 C7      -3.3622  -0.7578  -0.2463   C.ar      1 1      0.0000
     6 C6      -4.7367  -0.8157  -0.4061   C.ar      1 1      0.0000
     7 H4      -5.5230   2.3175   0.5441   H         1 1      0.0000
     8 C9      -1.2492   0.4642   0.3743   C.3       1 1      0.0000
     9 H7      -2.7594  -1.6315  -0.4711   H         1 1      0.0000
    10 H6      -5.2029  -1.7313  -0.7548   H         1 1      0.0000
    11 C10     -0.5481  -0.8439   0.0136   C.3       1 1      0.0000
    12 H9A     -0.8491   1.2689  -0.2548   H         1 1      0.0000
    13 C11      0.9637  -0.8378   0.1737   C.3       1 1      0.0000
    14 C12      1.6296   0.1734  -0.7530   C.3       1 1      0.0000
    15 H12A     1.3061   1.1835  -0.4730   H         1 1      0.0000
    16 C13      3.1260   0.1094  -0.7061   C.2       1 1      0.0000
    17 C14      3.8455   1.2335  -0.0233   C.3       1 1      0.0000
    18 H14B     3.3415   2.1760  -0.2706   H         1 1      0.0000
    19 H14A     4.8700   1.2945  -0.4104   H         1 1      0.0000
    20 N        3.7745  -0.9102  -1.2328   N.pl3     1 1      0.0000
    21 HN       3.2035  -1.6736  -1.5950   H         1 1      0.0000
    22 C        5.2149  -1.1206  -1.2286   C.3       1 1      0.0000
    23 H1A      5.4497  -2.1795  -1.1434   H         1 1      0.0000
    24 H1C      5.6615  -0.7475  -2.1479   H         1 1      0.0000
    25 H1B      5.6790  -0.6021  -0.3923   H         1 1      0.0000
    26 H10A    -0.9590  -1.6413   0.6451   H         1 1      0.0000
    27 H10B    -0.7844  -1.0871  -1.0297   H         1 1      0.0000
    28 H9B     -1.0240   0.7137   1.4186   H         1 1      0.0000
    29 H5      -6.5903   0.2420  -0.2485   H         1 1      0.0000
    30 H3      -3.0798   2.4215   0.8290   H         1 1      0.0000
    31 H12B     1.2963  -0.0105  -1.7818   H         1 1      0.0000
    32 C15      3.8964   1.0889   1.4864   C.3       1 1      0.0000
    33 H15A     4.3583   0.1269   1.7403   H         1 1      0.0000
    34 H15C     2.8733   1.0834   1.8821   H         1 1      0.0000
    35 OH       1.2868  -0.5148   1.5291   O.3       1 1      0.0000
    36 OH1      0.8773  -1.1813   2.1342   H         1 1      0.0000
    37 H22      1.3512  -1.8421  -0.0575   H         1 1      0.0000
    38 C16      4.6770   2.2025   2.1454   C.3       1 1      0.0000
    39 H16C     4.2277   3.1694   1.9282   H         1 1      0.0000
    40 H16A     4.6967   2.0730   3.2255   H         1 1      0.0000
    41 H16B     5.7042   2.2180   1.7871   H         1 1      0.0000
@<TRIPOS>BOND
     1     1     2   ar
     2     1     6   ar
     3     1    29    1
     4     2     3   ar
     5     2     7    1
     6     3     4   ar
     7     3    30    1
     8     4     5   ar
     9     4     8    1
    10     5     6   ar
    11     5     9    1
    12     6    10    1
    13     8    11    1
    14     8    12    1
    15     8    28    1
    16    11    13    1
    17    11    26    1
    18    11    27    1
    19    13    14    1
    20    14    15    1
    21    14    16    1
    22    14    31    1
    23    16    17    1
    24    16    20    2
    25    17    18    1
    26    17    19    1
    27    17    32    1
    28    20    21    1
    29    20    22    1
    30    22    23    1
    31    22    24    1
    32    22    25    1
    33    32    33    1
    34    32    34    1
    35    13    35    1
    36    35    36    1
    37    13    37    1
    38    32    38    1
    39    38    39    1
    40    38    40    1
    41    38    41    1
@<TRIPOS>SUBSTRUCTURE
     1 1           1 GROUP             0 ****  ****    0  
@<TRIPOS>MOLECULE
Molecule Name_00001_00392
    41    41     1     0     0
SMALL
NO_CHARGES
****
Generated from the CSD

@<TRIPOS>ATOM
     1 C5      -4.4993  -1.1525   0.2560   C.ar      1 1      0.0000
     2 C4      -3.2593  -1.7403   0.1293   C.ar      1 1      0.0000
     3 C3      -2.1111  -0.9761   0.2542   C.ar      1 1      0.0000
     4 C8      -2.1879   0.3848   0.5080   C.ar      1 1      0.0000
     5 C7      -3.4419   0.9630   0.6318   C.ar      1 1      0.0000
     6 C6      -4.5906   0.1996   0.5071   C.ar      1 1      0.0000
     7 H4      -3.1824  -2.8043  -0.0687   H         1 1      0.0000
     8 C9      -0.9362   1.2181   0.6408   C.3       1 1      0.0000
     9 H7      -3.5243   2.0268   0.8289   H         1 1      0.0000
    10 H6      -5.5647   0.6670   0.6073   H         1 1      0.0000
    11 C10     -0.0313   1.1418  -0.5874   C.3       1 1      0.0000
    12 H9A     -1.2211   2.2639   0.8098   H         1 1      0.0000
    13 C11      1.2453   1.9633  -0.5073   C.3       1 1      0.0000
    14 C12      2.3820   1.3263  -1.2991   C.3       1 1      0.0000
    15 H12A     3.2355   2.0151  -1.3182   H         1 1      0.0000
    16 C13      2.8262   0.0141  -0.7276   C.2       1 1      0.0000
    17 C14      3.6440   0.0479   0.5285   C.3       1 1      0.0000
    18 H14B     4.2507   0.9619   0.5292   H         1 1      0.0000
    19 H14A     4.3321  -0.8062   0.5344   H         1 1      0.0000
    20 N        2.4900  -1.1219  -1.3054   N.pl3     1 1      0.0000
    21 HN       1.8566  -1.0563  -2.1021   H         1 1      0.0000
    22 C        2.8182  -2.4629  -0.8440   C.3       1 1      0.0000
    23 H1A      2.0091  -3.1558  -1.0655   H         1 1      0.0000
    24 H1C      3.7198  -2.8282  -1.3312   H         1 1      0.0000
    25 H1B      2.9872  -2.4715   0.2307   H         1 1      0.0000
    26 H10A     0.2431   0.0920  -0.7491   H         1 1      0.0000
    27 H10B    -0.6042   1.4770  -1.4608   H         1 1      0.0000
    28 H9B     -0.3743   0.8790   1.5198   H         1 1      0.0000
    29 H5      -5.3991  -1.7509   0.1585   H         1 1      0.0000
    30 H3      -1.1396  -1.4481   0.1522   H         1 1      0.0000
    31 H12B     2.0543   1.1722  -2.3346   H         1 1      0.0000
    32 C15      2.8076   0.0163   1.7943   C.3       1 1      0.0000
    33 H15A     2.1787  -0.8825   1.7877   H         1 1      0.0000
    34 H15C     2.1433   0.8892   1.8086   H         1 1      0.0000
    35 OH       0.9898   3.2720  -1.0249   O.3       1 1      0.0000
    36 OH1      0.2692   3.7000  -0.4999   H         1 1      0.0000
    37 H22      1.5497   2.0481   0.5474   H         1 1      0.0000
    38 C16      3.6559   0.0182   3.0450   C.3       1 1      0.0000
    39 H16C     4.2758   0.9113   3.0892   H         1 1      0.0000
    40 H16A     3.0307  -0.0049   3.9351   H         1 1      0.0000
    41 H16B     4.3108  -0.8504   3.0682   H         1 1      0.0000
@<TRIPOS>BOND
     1     1     2   ar
     2     1     6   ar
     3     1    29    1
     4     2     3   ar
     5     2     7    1
     6     3     4   ar
     7     3    30    1
     8     4     5   ar
     9     4     8    1
    10     5     6   ar
    11     5     9    1
    12     6    10    1
    13     8    11    1
    14     8    12    1
    15     8    28    1
    16    11    13    1
    17    11    26    1
    18    11    27    1
    19    13    14    1
    20    14    15    1
    21    14    16    1
    22    14    31    1
    23    16    17    1
    24    16    20    2
    25    17    18    1
    26    17    19    1
    27    17    32    1
    28    20    21    1
    29    20    22    1
    30    22    23    1
    31    22    24    1
    32    22    25    1
    33    32    33    1
    34    32    34    1
    35    13    35    1
    36    35    36    1
    37    13    37    1
    38    32    38    1
    39    38    39    1
    40    38    40    1
    41    38    41    1
@<TRIPOS>SUBSTRUCTURE
     1 1           1 GROUP             0 ****  ****    0  
@<TRIPOS>MOLECULE
Molecule Name_00001_00393
    41    41     1     0     0
SMALL
NO_CHARGES
****
Generated from the CSD

@<TRIPOS>ATOM
     1 C5      -4.8001  -1.1516  -0.3465   C.ar      1 1      0.0000
     2 C4      -3.5537  -1.6997  -0.5597   C.ar      1 1      0.0000
     3 C3      -2.4176  -1.0289  -0.1386   C.ar      1 1      0.0000
     4 C8      -2.5130   0.1973   0.5013   C.ar      1 1      0.0000
     5 C7      -3.7731   0.7373   0.7080   C.ar      1 1      0.0000
     6 C6      -4.9098   0.0673   0.2873   C.ar      1 1      0.0000
     7 H4      -3.4623  -2.6589  -1.0586   H         1 1      0.0000
     8 C9      -1.2742   0.9296   0.9573   C.3       1 1      0.0000
     9 H7      -3.8699   1.6966   1.2055   H         1 1      0.0000
    10 H6      -5.8889   0.5030   0.4570   H         1 1      0.0000
    11 C10     -0.2870   1.2022  -0.1759   C.3       1 1      0.0000
    12 H9A     -1.5710   1.8840   1.4094   H         1 1      0.0000
    13 C11      0.9803   1.9384   0.2279   C.3       1 1      0.0000
    14 C12      2.1693   1.5421  -0.6404   C.3       1 1      0.0000
    15 H12A     3.0023   2.2278  -0.4422   H         1 1      0.0000
    16 C13      2.6259   0.1359  -0.3963   C.2       1 1      0.0000
    17 C14      3.3360  -0.1470   0.8935   C.3       1 1      0.0000
    18 H14B     3.2194  -1.2110   1.1337   H         1 1      0.0000
    19 H14A     2.8636   0.4280   1.6993   H         1 1      0.0000
    20 N        2.3913  -0.8129  -1.2808   N.pl3     1 1      0.0000
    21 HN       1.8228  -0.5524  -2.0864   H         1 1      0.0000
    22 C        2.7429  -2.2204  -1.1605   C.3       1 1      0.0000
    23 H1A      2.1824  -2.8202  -1.8745   H         1 1      0.0000
    24 H1C      3.8035  -2.3702  -1.3510   H         1 1      0.0000
    25 H1B      2.5231  -2.5898  -0.1611   H         1 1      0.0000
    26 H10A    -0.0010   0.2421  -0.6230   H         1 1      0.0000
    27 H10B    -0.7988   1.7917  -0.9466   H         1 1      0.0000
    28 H9B     -0.7737   0.3349   1.7314   H         1 1      0.0000
    29 H5      -5.6904  -1.6769  -0.6761   H         1 1      0.0000
    30 H3      -1.4409  -1.4685  -0.3116   H         1 1      0.0000
    31 H12B     1.8927   1.6495  -1.6965   H         1 1      0.0000
    32 C15      4.8162   0.1848   0.8530   C.3       1 1      0.0000
    33 H15A     4.9403   1.2476   0.6112   H         1 1      0.0000
    34 H15C     5.2938  -0.3975   0.0554   H         1 1      0.0000
    35 OH       0.7596   3.3463   0.1058   O.3       1 1      0.0000
    36 OH1      0.0043   3.6138   0.6854   H         1 1      0.0000
    37 H22      1.2115   1.7016   1.2780   H         1 1      0.0000
    38 C16      5.5081  -0.1091   2.1640   C.3       1 1      0.0000
    39 H16C     5.4199  -1.1631   2.4189   H         1 1      0.0000
    40 H16A     6.5661   0.1381   2.1056   H         1 1      0.0000
    41 H16B     5.0682   0.4728   2.9712   H         1 1      0.0000
@<TRIPOS>BOND
     1     1     2   ar
     2     1     6   ar
     3     1    29    1
     4     2     3   ar
     5     2     7    1
     6     3     4   ar
     7     3    30    1
     8     4     5   ar
     9     4     8    1
    10     5     6   ar
    11     5     9    1
    12     6    10    1
    13     8    11    1
    14     8    12    1
    15     8    28    1
    16    11    13    1
    17    11    26    1
    18    11    27    1
    19    13    14    1
    20    14    15    1
    21    14    16    1
    22    14    31    1
    23    16    17    1
    24    16    20    2
    25    17    18    1
    26    17    19    1
    27    17    32    1
    28    20    21    1
    29    20    22    1
    30    22    23    1
    31    22    24    1
    32    22    25    1
    33    32    33    1
    34    32    34    1
    35    13    35    1
    36    35    36    1
    37    13    37    1
    38    32    38    1
    39    38    39    1
    40    38    40    1
    41    38    41    1
@<TRIPOS>SUBSTRUCTURE
     1 1           1 GROUP             0 ****  ****    0  
@<TRIPOS>MOLECULE
Molecule Name_00001_00394
    41    41     1     0     0
SMALL
NO_CHARGES
****
Generated from the CSD

@<TRIPOS>ATOM
     1 C5      -4.4998   1.6461   0.3854   C.ar      1 1      0.0000
     2 C4      -3.2201   2.1538   0.4490   C.ar      1 1      0.0000
     3 C3      -2.1373   1.3532   0.1255   C.ar      1 1      0.0000
     4 C8      -2.3199   0.0360  -0.2664   C.ar      1 1      0.0000
     5 C7      -3.6125  -0.4618  -0.3247   C.ar      1 1      0.0000
     6 C6      -4.6960   0.3379  -0.0014   C.ar      1 1      0.0000
     7 H4      -3.0606   3.1829   0.7534   H         1 1      0.0000
     8 C9      -1.1391  -0.8372  -0.6158   C.3       1 1      0.0000
     9 H7      -3.7774  -1.4906  -0.6275   H         1 1      0.0000
    10 H6      -5.7016  -0.0664  -0.0527   H         1 1      0.0000
    11 C10     -0.1183  -0.9469   0.5151   C.3       1 1      0.0000
    12 H9A     -1.5013  -1.8414  -0.8683   H         1 1      0.0000
    13 C11      1.0930  -1.8157   0.2166   C.3       1 1      0.0000
    14 C12      2.3622  -1.2597   0.8527   C.3       1 1      0.0000
    15 H12A     3.0575  -2.0857   1.0466   H         1 1      0.0000
    16 C13      3.0447  -0.2382  -0.0054   C.2       1 1      0.0000
    17 C14      2.4171   1.1204  -0.0956   C.3       1 1      0.0000
    18 H14B     1.3366   1.0001  -0.2421   H         1 1      0.0000
    19 H14A     2.8140   1.6439  -0.9739   H         1 1      0.0000
    20 N        4.1638  -0.5280  -0.6386   N.pl3     1 1      0.0000
    21 HN       4.5690  -1.4444  -0.4485   H         1 1      0.0000
    22 C        4.9495   0.3705  -1.4718   C.3       1 1      0.0000
    23 H1A      6.0121   0.1589  -1.3717   H         1 1      0.0000
    24 H1C      4.6793   0.2593  -2.5198   H         1 1      0.0000
    25 H1B      4.7821   1.4071  -1.1874   H         1 1      0.0000
    26 H10A     0.2331   0.0625   0.7620   H         1 1      0.0000
    27 H10B    -0.6245  -1.3515   1.4003   H         1 1      0.0000
    28 H9B     -0.6441  -0.4276  -1.5050   H         1 1      0.0000
    29 H5      -5.3484   2.2730   0.6385   H         1 1      0.0000
    30 H3      -1.1337   1.7621   0.1793   H         1 1      0.0000
    31 H12B     2.1086  -0.8035   1.8176   H         1 1      0.0000
    32 C15      2.6503   1.9760   1.1358   C.3       1 1      0.0000
    33 H15A     3.7295   2.0987   1.2895   H         1 1      0.0000
    34 H15C     2.2440   1.4602   2.0146   H         1 1      0.0000
    35 OH       0.8557  -3.1336   0.7192   O.3       1 1      0.0000
    36 OH1      0.0466  -3.5093   0.2922   H         1 1      0.0000
    37 H22      1.2346  -1.8681  -0.8740   H         1 1      0.0000
    38 C16      2.0082   3.3390   1.0198   C.3       1 1      0.0000
    39 H16C     0.9320   3.2484   0.8882   H         1 1      0.0000
    40 H16A     2.1916   3.9292   1.9152   H         1 1      0.0000
    41 H16B     2.4093   3.8830   0.1673   H         1 1      0.0000
@<TRIPOS>BOND
     1     1     2   ar
     2     1     6   ar
     3     1    29    1
     4     2     3   ar
     5     2     7    1
     6     3     4   ar
     7     3    30    1
     8     4     5   ar
     9     4     8    1
    10     5     6   ar
    11     5     9    1
    12     6    10    1
    13     8    11    1
    14     8    12    1
    15     8    28    1
    16    11    13    1
    17    11    26    1
    18    11    27    1
    19    13    14    1
    20    14    15    1
    21    14    16    1
    22    14    31    1
    23    16    17    1
    24    16    20    2
    25    17    18    1
    26    17    19    1
    27    17    32    1
    28    20    21    1
    29    20    22    1
    30    22    23    1
    31    22    24    1
    32    22    25    1
    33    32    33    1
    34    32    34    1
    35    13    35    1
    36    35    36    1
    37    13    37    1
    38    32    38    1
    39    38    39    1
    40    38    40    1
    41    38    41    1
@<TRIPOS>SUBSTRUCTURE
     1 1           1 GROUP             0 ****  ****    0  
@<TRIPOS>MOLECULE
Molecule Name_00001_00395
    41    41     1     0     0
SMALL
NO_CHARGES
****
Generated from the CSD

@<TRIPOS>ATOM
     1 C5      -4.6846  -0.1963  -1.1924   C.ar      1 1      0.0000
     2 C4      -3.5194  -0.7615  -1.6641   C.ar      1 1      0.0000
     3 C3      -2.3805  -0.7673  -0.8762   C.ar      1 1      0.0000
     4 C8      -2.3920  -0.2092   0.3929   C.ar      1 1      0.0000
     5 C7      -3.5706   0.3569   0.8540   C.ar      1 1      0.0000
     6 C6      -4.7101   0.3632   0.0668   C.ar      1 1      0.0000
     7 H4      -3.4944  -1.2028  -2.6549   H         1 1      0.0000
     8 C9      -1.1495  -0.2129   1.2502   C.3       1 1      0.0000
     9 H7      -3.6007   0.8004   1.8437   H         1 1      0.0000
    10 H6      -5.6249   0.8096   0.4424   H         1 1      0.0000
    11 C10     -0.2418   0.9892   0.9965   C.3       1 1      0.0000
    12 H9A     -1.4457  -0.2198   2.3064   H         1 1      0.0000
    13 C11      1.0258   1.0358   1.8343   C.3       1 1      0.0000
    14 C12      2.0153  -0.0512   1.4293   C.3       1 1      0.0000
    15 H12A     1.5796  -1.0332   1.6510   H         1 1      0.0000
    16 C13      2.3799   0.0046  -0.0231   C.2       1 1      0.0000
    17 C14      3.3868   1.0323  -0.4447   C.3       1 1      0.0000
    18 H14B     3.2334   1.9407   0.1509   H         1 1      0.0000
    19 H14A     3.2174   1.2936  -1.4964   H         1 1      0.0000
    20 N        1.8431  -0.8346  -0.8862   N.pl3     1 1      0.0000
    21 HN       1.2386  -1.5592  -0.4994   H         1 1      0.0000
    22 C        2.1293  -0.9184  -2.3111   C.3       1 1      0.0000
    23 H1A      2.0818  -1.9499  -2.6539   H         1 1      0.0000
    24 H1C      1.4090  -0.3377  -2.8835   H         1 1      0.0000
    25 H1B      3.1235  -0.5342  -2.5290   H         1 1      0.0000
    26 H10A     0.0440   0.9884  -0.0626   H         1 1      0.0000
    27 H10B    -0.8168   1.9036   1.1879   H         1 1      0.0000
    28 H9B     -0.5854  -1.1334   1.0556   H         1 1      0.0000
    29 H5      -5.5771  -0.1918  -1.8093   H         1 1      0.0000
    30 H3      -1.4680  -1.2141  -1.2568   H         1 1      0.0000
    31 H12B     2.9270   0.0528   2.0306   H         1 1      0.0000
    32 C15      4.8237   0.5746  -0.2754   C.3       1 1      0.0000
    33 H15A     5.4931   1.3150  -0.7306   H         1 1      0.0000
    34 H15C     4.9640  -0.3746  -0.8072   H         1 1      0.0000
    35 OH       1.6437   2.3156   1.6726   O.3       1 1      0.0000
    36 OH1      1.0150   3.0243   1.9564   H         1 1      0.0000
    37 H22      0.7590   0.8980   2.8935   H         1 1      0.0000
    38 C16      5.2021   0.3907   1.1760   C.3       1 1      0.0000
    39 H16C     4.7669  -0.5231   1.5752   H         1 1      0.0000
    40 H16A     6.2825   0.3287   1.2880   H         1 1      0.0000
    41 H16B     4.8465   1.2257   1.7761   H         1 1      0.0000
@<TRIPOS>BOND
     1     1     2   ar
     2     1     6   ar
     3     1    29    1
     4     2     3   ar
     5     2     7    1
     6     3     4   ar
     7     3    30    1
     8     4     5   ar
     9     4     8    1
    10     5     6   ar
    11     5     9    1
    12     6    10    1
    13     8    11    1
    14     8    12    1
    15     8    28    1
    16    11    13    1
    17    11    26    1
    18    11    27    1
    19    13    14    1
    20    14    15    1
    21    14    16    1
    22    14    31    1
    23    16    17    1
    24    16    20    2
    25    17    18    1
    26    17    19    1
    27    17    32    1
    28    20    21    1
    29    20    22    1
    30    22    23    1
    31    22    24    1
    32    22    25    1
    33    32    33    1
    34    32    34    1
    35    13    35    1
    36    35    36    1
    37    13    37    1
    38    32    38    1
    39    38    39    1
    40    38    40    1
    41    38    41    1
@<TRIPOS>SUBSTRUCTURE
     1 1           1 GROUP             0 ****  ****    0  
@<TRIPOS>MOLECULE
Molecule Name_00001_00396
    41    41     1     0     0
SMALL
NO_CHARGES
****
Generated from the CSD

@<TRIPOS>ATOM
     1 C5      -4.6118  -0.2734  -1.2927   C.ar      1 1      0.0000
     2 C4      -3.4133  -0.8249  -1.6915   C.ar      1 1      0.0000
     3 C3      -2.3152  -0.7862  -0.8486   C.ar      1 1      0.0000
     4 C8      -2.4012  -0.1968   0.4033   C.ar      1 1      0.0000
     5 C7      -3.6126   0.3551   0.7908   C.ar      1 1      0.0000
     6 C6      -4.7113   0.3169  -0.0514   C.ar      1 1      0.0000
     7 H4      -3.3300  -1.2904  -2.6680   H         1 1      0.0000
     8 C9      -1.2030  -0.1520   1.3205   C.3       1 1      0.0000
     9 H7      -3.7009   0.8226   1.7659   H         1 1      0.0000
    10 H6      -5.6526   0.7528   0.2668   H         1 1      0.0000
    11 C10     -0.3086   1.0627   1.0805   C.3       1 1      0.0000
    12 H9A     -1.5513  -0.1388   2.3607   H         1 1      0.0000
    13 C11      0.9146   1.1578   1.9781   C.3       1 1      0.0000
    14 C12      1.9448   0.0823   1.6513   C.3       1 1      0.0000
    15 H12A     1.5196  -0.9027   1.8802   H         1 1      0.0000
    16 C13      2.3768   0.1062   0.2166   C.2       1 1      0.0000
    17 C14      3.3782   1.1463  -0.1872   C.3       1 1      0.0000
    18 H14B     3.1342   2.0866   0.3225   H         1 1      0.0000
    19 H14A     3.2984   1.3245  -1.2665   H         1 1      0.0000
    20 N        1.9017  -0.7702  -0.6458   N.pl3     1 1      0.0000
    21 HN       1.2967  -1.4985  -0.2667   H         1 1      0.0000
    22 C        2.2575  -0.8870  -2.0525   C.3       1 1      0.0000
    23 H1A      2.2578  -1.9292  -2.3649   H         1 1      0.0000
    24 H1C      1.5477  -0.3468  -2.6755   H         1 1      0.0000
    25 H1B      3.2486  -0.4778  -2.2360   H         1 1      0.0000
    26 H10A     0.0296   1.0414   0.0371   H         1 1      0.0000
    27 H10B    -0.9109   1.9690   1.2193   H         1 1      0.0000
    28 H9B     -0.6114  -1.0647   1.1782   H         1 1      0.0000
    29 H5      -5.4724  -0.3037  -1.9527   H         1 1      0.0000
    30 H3      -1.3759  -1.2227  -1.1719   H         1 1      0.0000
    31 H12B     2.8244   0.2230   2.2915   H         1 1      0.0000
    32 C15      4.8094   0.7678   0.1459   C.3       1 1      0.0000
    33 H15A     4.8851   0.5563   1.2196   H         1 1      0.0000
    34 H15C     5.4670   1.6178  -0.0745   H         1 1      0.0000
    35 OH       1.5138   2.4461   1.8132   O.3       1 1      0.0000
    36 OH1      0.8576   3.1480   2.0468   H         1 1      0.0000
    37 H22      0.5982   1.0412   3.0262   H         1 1      0.0000
    38 C16      5.2815  -0.4391  -0.6313   C.3       1 1      0.0000
    39 H16C     5.2380  -0.2497  -1.7018   H         1 1      0.0000
    40 H16A     6.3088  -0.6869  -0.3725   H         1 1      0.0000
    41 H16B     4.6592  -1.3049  -0.4147   H         1 1      0.0000
@<TRIPOS>BOND
     1     1     2   ar
     2     1     6   ar
     3     1    29    1
     4     2     3   ar
     5     2     7    1
     6     3     4   ar
     7     3    30    1
     8     4     5   ar
     9     4     8    1
    10     5     6   ar
    11     5     9    1
    12     6    10    1
    13     8    11    1
    14     8    12    1
    15     8    28    1
    16    11    13    1
    17    11    26    1
    18    11    27    1
    19    13    14    1
    20    14    15    1
    21    14    16    1
    22    14    31    1
    23    16    17    1
    24    16    20    2
    25    17    18    1
    26    17    19    1
    27    17    32    1
    28    20    21    1
    29    20    22    1
    30    22    23    1
    31    22    24    1
    32    22    25    1
    33    32    33    1
    34    32    34    1
    35    13    35    1
    36    35    36    1
    37    13    37    1
    38    32    38    1
    39    38    39    1
    40    38    40    1
    41    38    41    1
@<TRIPOS>SUBSTRUCTURE
     1 1           1 GROUP             0 ****  ****    0  
@<TRIPOS>MOLECULE
Molecule Name_00001_00397
    41    41     1     0     0
SMALL
NO_CHARGES
****
Generated from the CSD

@<TRIPOS>ATOM
     1 C5      -4.4523   0.3338   1.3830   C.ar      1 1      0.0000
     2 C4      -3.2449   0.7175   1.9254   C.ar      1 1      0.0000
     3 C3      -2.1201   0.8106   1.1229   C.ar      1 1      0.0000
     4 C8      -2.1880   0.5222  -0.2315   C.ar      1 1      0.0000
     5 C7      -3.4088   0.1362  -0.7633   C.ar      1 1      0.0000
     6 C6      -4.5342   0.0428   0.0384   C.ar      1 1      0.0000
     7 H4      -3.1754   0.9472   2.9835   H         1 1      0.0000
     8 C9      -0.9610   0.6206  -1.1052   C.3       1 1      0.0000
     9 H7      -3.4834  -0.0955  -1.8206   H         1 1      0.0000
    10 H6      -5.4826  -0.2601  -0.3931   H         1 1      0.0000
    11 C10     -0.1327  -0.6626  -1.1234   C.3       1 1      0.0000
    12 H9A     -1.2718   0.8593  -2.1298   H         1 1      0.0000
    13 C11      1.1163  -0.6189  -1.9889   C.3       1 1      0.0000
    14 C12      2.1532   0.3560  -1.4419   C.3       1 1      0.0000
    15 H12A     1.7386   1.3713  -1.4662   H         1 1      0.0000
    16 C13      2.5736   0.0337  -0.0402   C.2       1 1      0.0000
    17 C14      1.7714   0.6304   1.0771   C.3       1 1      0.0000
    18 H14B     1.8489  -0.0236   1.9545   H         1 1      0.0000
    19 H14A     0.7152   0.6670   0.7838   H         1 1      0.0000
    20 N        3.6003  -0.7599   0.1908   N.pl3     1 1      0.0000
    21 HN       4.0312  -1.1944  -0.6251   H         1 1      0.0000
    22 C        4.0952  -1.1856   1.4919   C.3       1 1      0.0000
    23 H1A      4.7455  -2.0522   1.3924   H         1 1      0.0000
    24 H1C      4.6631  -0.3888   1.9677   H         1 1      0.0000
    25 H1B      3.2716  -1.4537   2.1501   H         1 1      0.0000
    26 H10A     0.1684  -0.8937  -0.0941   H         1 1      0.0000
    27 H10B    -0.7707  -1.4815  -1.4780   H         1 1      0.0000
    28 H9B     -0.3333   1.4455  -0.7460   H         1 1      0.0000
    29 H5      -5.3339   0.2610   2.0113   H         1 1      0.0000
    30 H3      -1.1740   1.1131   1.5595   H         1 1      0.0000
    31 H12B     3.0367   0.3408  -2.0921   H         1 1      0.0000
    32 C15      2.2238   2.0254   1.4669   C.3       1 1      0.0000
    33 H15A     1.5257   2.4364   2.2067   H         1 1      0.0000
    34 H15C     2.1937   2.6737   0.5825   H         1 1      0.0000
    35 OH       1.6889  -1.9283  -2.0462   O.3       1 1      0.0000
    36 OH1      1.0289  -2.5613  -2.4228   H         1 1      0.0000
    37 H22      0.8349  -0.3059  -3.0063   H         1 1      0.0000
    38 C16      3.6206   2.0377   2.0435   C.3       1 1      0.0000
    39 H16C     4.3391   1.6547   1.3219   H         1 1      0.0000
    40 H16A     3.9176   3.0489   2.3135   H         1 1      0.0000
    41 H16B     3.6746   1.4187   2.9367   H         1 1      0.0000
@<TRIPOS>BOND
     1     1     2   ar
     2     1     6   ar
     3     1    29    1
     4     2     3   ar
     5     2     7    1
     6     3     4   ar
     7     3    30    1
     8     4     5   ar
     9     4     8    1
    10     5     6   ar
    11     5     9    1
    12     6    10    1
    13     8    11    1
    14     8    12    1
    15     8    28    1
    16    11    13    1
    17    11    26    1
    18    11    27    1
    19    13    14    1
    20    14    15    1
    21    14    16    1
    22    14    31    1
    23    16    17    1
    24    16    20    2
    25    17    18    1
    26    17    19    1
    27    17    32    1
    28    20    21    1
    29    20    22    1
    30    22    23    1
    31    22    24    1
    32    22    25    1
    33    32    33    1
    34    32    34    1
    35    13    35    1
    36    35    36    1
    37    13    37    1
    38    32    38    1
    39    38    39    1
    40    38    40    1
    41    38    41    1
@<TRIPOS>SUBSTRUCTURE
     1 1           1 GROUP             0 ****  ****    0  
@<TRIPOS>MOLECULE
Molecule Name_00001_00398
    41    41     1     0     0
SMALL
NO_CHARGES
****
Generated from the CSD

@<TRIPOS>ATOM
     1 C5      -4.4007   0.0951   1.3489   C.ar      1 1      0.0000
     2 C4      -3.2012   0.2888   1.9992   C.ar      1 1      0.0000
     3 C3      -2.0489   0.5399   1.2731   C.ar      1 1      0.0000
     4 C8      -2.0812   0.6012  -0.1115   C.ar      1 1      0.0000
     5 C7      -3.2945   0.4032  -0.7525   C.ar      1 1      0.0000
     6 C6      -4.4473   0.1521  -0.0274   C.ar      1 1      0.0000
     7 H4      -3.1595   0.2445   3.0825   H         1 1      0.0000
     8 C9      -0.8244   0.8717  -0.9028   C.3       1 1      0.0000
     9 H7      -3.3414   0.4455  -1.8357   H         1 1      0.0000
    10 H6      -5.3893  -0.0001  -0.5438   H         1 1      0.0000
    11 C10     -0.0319  -0.3945  -1.2218   C.3       1 1      0.0000
    12 H9A     -1.0952   1.3694  -1.8421   H         1 1      0.0000
    13 C11      1.2451  -0.1798  -2.0182   C.3       1 1      0.0000
    14 C12      2.2922   0.5869  -1.2178   C.3       1 1      0.0000
    15 H12A     1.9075   1.5891  -0.9918   H         1 1      0.0000
    16 C13      2.6601  -0.0955   0.0645   C.2       1 1      0.0000
    17 C14      1.8386   0.2223   1.2778   C.3       1 1      0.0000
    18 H14B     1.8450  -0.6483   1.9453   H         1 1      0.0000
    19 H14A     0.7996   0.3990   0.9742   H         1 1      0.0000
    20 N        3.6587  -0.9546   0.1093   N.pl3     1 1      0.0000
    21 HN       4.1039  -1.1805  -0.7801   H         1 1      0.0000
    22 C        4.1017  -1.7137   1.2697   C.3       1 1      0.0000
    23 H1A      4.6907  -2.5761   0.9645   H         1 1      0.0000
    24 H1C      4.7168  -1.0970   1.9217   H         1 1      0.0000
    25 H1B      3.2509  -2.0711   1.8458   H         1 1      0.0000
    26 H10A     0.2293  -0.8856  -0.2763   H         1 1      0.0000
    27 H10B    -0.6807  -1.0761  -1.7856   H         1 1      0.0000
    28 H9B     -0.1859   1.5584  -0.3333   H         1 1      0.0000
    29 H5      -5.3037  -0.1014   1.9174   H         1 1      0.0000
    30 H3      -1.1093   0.6905   1.7944   H         1 1      0.0000
    31 H12B     3.1943   0.7061  -1.8306   H         1 1      0.0000
    32 C15      2.3401   1.4305   2.0468   C.3       1 1      0.0000
    33 H15A     3.3926   1.2752   2.3145   H         1 1      0.0000
    34 H15C     1.7689   1.5267   2.9784   H         1 1      0.0000
    35 OH       1.7803  -1.4526  -2.3915   O.3       1 1      0.0000
    36 OH1      1.1144  -1.9455  -2.9315   H         1 1      0.0000
    37 H22      1.0059   0.3897  -2.9296   H         1 1      0.0000
    38 C16      2.2144   2.7106   1.2536   C.3       1 1      0.0000
    39 H16C     1.1951   2.8453   0.8978   H         1 1      0.0000
    40 H16A     2.4762   3.5711   1.8658   H         1 1      0.0000
    41 H16B     2.8757   2.6956   0.3897   H         1 1      0.0000
@<TRIPOS>BOND
     1     1     2   ar
     2     1     6   ar
     3     1    29    1
     4     2     3   ar
     5     2     7    1
     6     3     4   ar
     7     3    30    1
     8     4     5   ar
     9     4     8    1
    10     5     6   ar
    11     5     9    1
    12     6    10    1
    13     8    11    1
    14     8    12    1
    15     8    28    1
    16    11    13    1
    17    11    26    1
    18    11    27    1
    19    13    14    1
    20    14    15    1
    21    14    16    1
    22    14    31    1
    23    16    17    1
    24    16    20    2
    25    17    18    1
    26    17    19    1
    27    17    32    1
    28    20    21    1
    29    20    22    1
    30    22    23    1
    31    22    24    1
    32    22    25    1
    33    32    33    1
    34    32    34    1
    35    13    35    1
    36    35    36    1
    37    13    37    1
    38    32    38    1
    39    38    39    1
    40    38    40    1
    41    38    41    1
@<TRIPOS>SUBSTRUCTURE
     1 1           1 GROUP             0 ****  ****    0  
@<TRIPOS>MOLECULE
Molecule Name_00001_00399
    41    41     1     0     0
SMALL
NO_CHARGES
****
Generated from the CSD

@<TRIPOS>ATOM
     1 C5      -4.3282   0.0556  -1.3343   C.ar      1 1      0.0000
     2 C4      -3.4029  -0.9657  -1.3351   C.ar      1 1      0.0000
     3 C3      -2.4890  -1.0772  -0.3005   C.ar      1 1      0.0000
     4 C8      -2.4891  -0.1701   0.7479   C.ar      1 1      0.0000
     5 C7      -3.4246   0.8529   0.7351   C.ar      1 1      0.0000
     6 C6      -4.3389   0.9653  -0.2990   C.ar      1 1      0.0000
     7 H4      -3.3903  -1.6841  -2.1482   H         1 1      0.0000
     8 C9      -1.4907  -0.2901   1.8739   C.3       1 1      0.0000
     9 H7      -3.4408   1.5745   1.5453   H         1 1      0.0000
    10 H6      -5.0653   1.7713  -0.2942   H         1 1      0.0000
    11 C10     -0.5466   0.9069   1.9689   C.3       1 1      0.0000
    12 H9A     -2.0335  -0.3926   2.8216   H         1 1      0.0000
    13 C11      0.4831   1.0137   0.8556   C.3       1 1      0.0000
    14 C12      1.4178  -0.1906   0.8282   C.3       1 1      0.0000
    15 H12A     0.8338  -1.0927   0.6079   H         1 1      0.0000
    16 C13      2.5110  -0.0565  -0.1880   C.2       1 1      0.0000
    17 C14      3.6287   0.8942   0.1196   C.3       1 1      0.0000
    18 H14B     3.2083   1.7917   0.5899   H         1 1      0.0000
    19 H14A     4.1069   1.2046  -0.8175   H         1 1      0.0000
    20 N        2.4902  -0.7656  -1.2989   N.pl3     1 1      0.0000
    21 HN       1.7424  -1.4537  -1.3847   H         1 1      0.0000
    22 C        3.4967  -0.7642  -2.3506   C.3       1 1      0.0000
    23 H1A      3.5981  -1.7550  -2.7887   H         1 1      0.0000
    24 H1C      3.2251  -0.0698  -3.1429   H         1 1      0.0000
    25 H1B      4.4664  -0.4666  -1.9575   H         1 1      0.0000
    26 H10A    -1.1499   1.8231   1.9703   H         1 1      0.0000
    27 H10B    -0.0155   0.8537   2.9273   H         1 1      0.0000
    28 H9B     -0.8979  -1.2016   1.7285   H         1 1      0.0000
    29 H5      -5.0444   0.1432  -2.1446   H         1 1      0.0000
    30 H3      -1.7642  -1.8845  -0.3106   H         1 1      0.0000
    31 H12B     1.8668  -0.3178   1.8210   H         1 1      0.0000
    32 C15      4.6828   0.3088   1.0410   C.3       1 1      0.0000
    33 H15A     5.1063  -0.5908   0.5774   H         1 1      0.0000
    34 H15C     4.2096   0.0079   1.9838   H         1 1      0.0000
    35 OH      -0.1965   1.1080  -0.3994   O.3       1 1      0.0000
    36 OH1     -0.7869   1.9013  -0.3967   H         1 1      0.0000
    37 H22      1.0811   1.9254   1.0087   H         1 1      0.0000
    38 C16      5.7973   1.2861   1.3351   C.3       1 1      0.0000
    39 H16C     5.4084   2.1811   1.8163   H         1 1      0.0000
    40 H16A     6.5370   0.8399   1.9966   H         1 1      0.0000
    41 H16B     6.2998   1.5855   0.4178   H         1 1      0.0000
@<TRIPOS>BOND
     1     1     2   ar
     2     1     6   ar
     3     1    29    1
     4     2     3   ar
     5     2     7    1
     6     3     4   ar
     7     3    30    1
     8     4     5   ar
     9     4     8    1
    10     5     6   ar
    11     5     9    1
    12     6    10    1
    13     8    11    1
    14     8    12    1
    15     8    28    1
    16    11    13    1
    17    11    26    1
    18    11    27    1
    19    13    14    1
    20    14    15    1
    21    14    16    1
    22    14    31    1
    23    16    17    1
    24    16    20    2
    25    17    18    1
    26    17    19    1
    27    17    32    1
    28    20    21    1
    29    20    22    1
    30    22    23    1
    31    22    24    1
    32    22    25    1
    33    32    33    1
    34    32    34    1
    35    13    35    1
    36    35    36    1
    37    13    37    1
    38    32    38    1
    39    38    39    1
    40    38    40    1
    41    38    41    1
@<TRIPOS>SUBSTRUCTURE
     1 1           1 GROUP             0 ****  ****    0  
@<TRIPOS>MOLECULE
Molecule Name_00001_00400
    41    41     1     0     0
SMALL
NO_CHARGES
****
Generated from the CSD

@<TRIPOS>ATOM
     1 C5      -4.0930   0.9492  -1.1733   C.ar      1 1      0.0000
     2 C4      -3.2718  -0.0494  -1.6505   C.ar      1 1      0.0000
     3 C3      -2.4339  -0.7336  -0.7858   C.ar      1 1      0.0000
     4 C8      -2.4068  -0.4289   0.5665   C.ar      1 1      0.0000
     5 C7      -3.2373   0.5787   1.0324   C.ar      1 1      0.0000
     6 C6      -4.0755   1.2635   0.1685   C.ar      1 1      0.0000
     7 H4      -3.2818  -0.3001  -2.7061   H         1 1      0.0000
     8 C9      -1.4910  -1.1727   1.5081   C.3       1 1      0.0000
     9 H7      -3.2304   0.8339   2.0869   H         1 1      0.0000
    10 H6      -4.7200   2.0492   0.5489   H         1 1      0.0000
    11 C10     -0.4430  -0.2736   2.1612   C.3       1 1      0.0000
    12 H9A     -2.0947  -1.6453   2.2928   H         1 1      0.0000
    13 C11      0.6544   0.2257   1.2352   C.3       1 1      0.0000
    14 C12      1.4689  -0.9219   0.6482   C.3       1 1      0.0000
    15 H12A     0.8037  -1.5739   0.0687   H         1 1      0.0000
    16 C13      2.5840  -0.4523  -0.2358   C.2       1 1      0.0000
    17 C14      3.8021   0.1149   0.4292   C.3       1 1      0.0000
    18 H14B     4.6756  -0.0903  -0.2019   H         1 1      0.0000
    19 H14A     3.9598  -0.3937   1.3882   H         1 1      0.0000
    20 N        2.4946  -0.5550  -1.5469   N.pl3     1 1      0.0000
    21 HN       1.6718  -1.0361  -1.9098   H         1 1      0.0000
    22 C        3.5084  -0.1757  -2.5202   C.3       1 1      0.0000
    23 H1A      3.3355  -0.6747  -3.4714   H         1 1      0.0000
    24 H1C      3.4935   0.8983  -2.6934   H         1 1      0.0000
    25 H1B      4.5017  -0.4482  -2.1701   H         1 1      0.0000
    26 H10A    -0.9544   0.5965   2.5911   H         1 1      0.0000
    27 H10B     0.0245  -0.8282   2.9841   H         1 1      0.0000
    28 H9B     -0.9813  -1.9702   0.9534   H         1 1      0.0000
    29 H5      -4.7498   1.4853  -1.8504   H         1 1      0.0000
    30 H3      -1.7908  -1.5177  -1.1714   H         1 1      0.0000
    31 H12B     1.8895  -1.5178   1.4676   H         1 1      0.0000
    32 C15      3.7161   1.6103   0.6723   C.3       1 1      0.0000
    33 H15A     2.8535   1.8211   1.3164   H         1 1      0.0000
    34 H15C     3.5519   2.1215  -0.2843   H         1 1      0.0000
    35 OH       0.0602   0.9716   0.1692   O.3       1 1      0.0000
    36 OH1     -0.4503   1.7319   0.5424   H         1 1      0.0000
    37 H22      1.3276   0.8863   1.8031   H         1 1      0.0000
    38 C16      4.9650   2.1609   1.3209   C.3       1 1      0.0000
    39 H16C     5.8356   1.9850   0.6925   H         1 1      0.0000
    40 H16A     4.8749   3.2330   1.4829   H         1 1      0.0000
    41 H16B     5.1408   1.6862   2.2840   H         1 1      0.0000
@<TRIPOS>BOND
     1     1     2   ar
     2     1     6   ar
     3     1    29    1
     4     2     3   ar
     5     2     7    1
     6     3     4   ar
     7     3    30    1
     8     4     5   ar
     9     4     8    1
    10     5     6   ar
    11     5     9    1
    12     6    10    1
    13     8    11    1
    14     8    12    1
    15     8    28    1
    16    11    13    1
    17    11    26    1
    18    11    27    1
    19    13    14    1
    20    14    15    1
    21    14    16    1
    22    14    31    1
    23    16    17    1
    24    16    20    2
    25    17    18    1
    26    17    19    1
    27    17    32    1
    28    20    21    1
    29    20    22    1
    30    22    23    1
    31    22    24    1
    32    22    25    1
    33    32    33    1
    34    32    34    1
    35    13    35    1
    36    35    36    1
    37    13    37    1
    38    32    38    1
    39    38    39    1
    40    38    40    1
    41    38    41    1
@<TRIPOS>SUBSTRUCTURE
     1 1           1 GROUP             0 ****  ****    0  
@<TRIPOS>MOLECULE
Molecule Name_00001_00401
    41    41     1     0     0
SMALL
NO_CHARGES
****
Generated from the CSD

@<TRIPOS>ATOM
     1 C5      -3.8488   0.7090   1.6859   C.ar      1 1      0.0000
     2 C4      -2.8625   1.6147   1.3596   C.ar      1 1      0.0000
     3 C3      -2.0927   1.4257   0.2239   C.ar      1 1      0.0000
     4 C8      -2.2994   0.3301  -0.6000   C.ar      1 1      0.0000
     5 C7      -3.2941  -0.5735  -0.2589   C.ar      1 1      0.0000
     6 C6      -4.0644  -0.3855   0.8765   C.ar      1 1      0.0000
     7 H4      -2.6888   2.4776   1.9939   H         1 1      0.0000
     8 C9      -1.4580   0.1228  -1.8360   C.3       1 1      0.0000
     9 H7      -3.4712  -1.4386  -0.8893   H         1 1      0.0000
    10 H6      -4.8395  -1.1014   1.1295   H         1 1      0.0000
    11 C10     -0.6221  -1.1547  -1.7857   C.3       1 1      0.0000
    12 H9A     -2.1164   0.0841  -2.7126   H         1 1      0.0000
    13 C11      0.5396  -1.1341  -0.8054   C.3       1 1      0.0000
    14 C12      1.5517  -0.0457  -1.1458   C.3       1 1      0.0000
    15 H12A     1.0831   0.9361  -1.0055   H         1 1      0.0000
    16 C13      2.7911  -0.1196  -0.3067   C.2       1 1      0.0000
    17 C14      2.7043   0.3871   1.1016   C.3       1 1      0.0000
    18 H14B     3.4842  -0.1001   1.6998   H         1 1      0.0000
    19 H14A     1.7344   0.1036   1.5282   H         1 1      0.0000
    20 N        3.9055  -0.6291  -0.7925   N.pl3     1 1      0.0000
    21 HN       3.8504  -1.0335  -1.7272   H         1 1      0.0000
    22 C        5.1665  -0.7961  -0.0848   C.3       1 1      0.0000
    23 H1A      5.7977  -1.5252  -0.5884   H         1 1      0.0000
    24 H1C      5.7090   0.1458  -0.0367   H         1 1      0.0000
    25 H1B      4.9960  -1.1408   0.9329   H         1 1      0.0000
    26 H10A    -1.2829  -1.9893  -1.5206   H         1 1      0.0000
    27 H10B    -0.2242  -1.3478  -2.7896   H         1 1      0.0000
    28 H9B     -0.7883   0.9829  -1.9592   H         1 1      0.0000
    29 H5      -4.4522   0.8568   2.5753   H         1 1      0.0000
    30 H3      -1.3183   2.1441  -0.0240   H         1 1      0.0000
    31 H12B     1.8305  -0.1344  -2.2031   H         1 1      0.0000
    32 C15      2.8718   1.8912   1.2134   C.3       1 1      0.0000
    33 H15A     2.0958   2.3850   0.6156   H         1 1      0.0000
    34 H15C     3.8461   2.1766   0.7980   H         1 1      0.0000
    35 OH       0.0325  -0.9066   0.5125   O.3       1 1      0.0000
    36 OH1     -0.6070  -1.6230   0.7487   H         1 1      0.0000
    37 H22      1.0456  -2.1116  -0.8309   H         1 1      0.0000
    38 C16      2.7803   2.3760   2.6418   C.3       1 1      0.0000
    39 H16C     3.5538   1.9182   3.2548   H         1 1      0.0000
    40 H16A     2.9036   3.4559   2.6912   H         1 1      0.0000
    41 H16B     1.8134   2.1252   3.0730   H         1 1      0.0000
@<TRIPOS>BOND
     1     1     2   ar
     2     1     6   ar
     3     1    29    1
     4     2     3   ar
     5     2     7    1
     6     3     4   ar
     7     3    30    1
     8     4     5   ar
     9     4     8    1
    10     5     6   ar
    11     5     9    1
    12     6    10    1
    13     8    11    1
    14     8    12    1
    15     8    28    1
    16    11    13    1
    17    11    26    1
    18    11    27    1
    19    13    14    1
    20    14    15    1
    21    14    16    1
    22    14    31    1
    23    16    17    1
    24    16    20    2
    25    17    18    1
    26    17    19    1
    27    17    32    1
    28    20    21    1
    29    20    22    1
    30    22    23    1
    31    22    24    1
    32    22    25    1
    33    32    33    1
    34    32    34    1
    35    13    35    1
    36    35    36    1
    37    13    37    1
    38    32    38    1
    39    38    39    1
    40    38    40    1
    41    38    41    1
@<TRIPOS>SUBSTRUCTURE
     1 1           1 GROUP             0 ****  ****    0  
@<TRIPOS>MOLECULE
Molecule Name_00001_00402
    41    41     1     0     0
SMALL
NO_CHARGES
****
Generated from the CSD

@<TRIPOS>ATOM
     1 C5      -3.9227   1.9232  -0.3779   C.ar      1 1      0.0000
     2 C4      -2.8113   1.6325  -1.1393   C.ar      1 1      0.0000
     3 C3      -2.1097   0.4578  -0.9258   C.ar      1 1      0.0000
     4 C8      -2.5104  -0.4412   0.0506   C.ar      1 1      0.0000
     5 C7      -3.6293  -0.1353   0.8099   C.ar      1 1      0.0000
     6 C6      -4.3317   1.0392   0.5970   C.ar      1 1      0.0000
     7 H4      -2.4853   2.3256  -1.9078   H         1 1      0.0000
     8 C9      -1.7434  -1.7201   0.2853   C.3       1 1      0.0000
     9 H7      -3.9589  -0.8246   1.5803   H         1 1      0.0000
    10 H6      -5.2058   1.2638   1.1992   H         1 1      0.0000
    11 C10     -0.6942  -1.5968   1.3885   C.3       1 1      0.0000
    12 H9A     -2.4503  -2.5153   0.5524   H         1 1      0.0000
    13 C11      0.7438  -1.4815   0.9090   C.3       1 1      0.0000
    14 C12      1.0448  -0.0987   0.3414   C.3       1 1      0.0000
    15 H12A     0.9211   0.6490   1.1345   H         1 1      0.0000
    16 C13      2.4291   0.0113  -0.2217   C.2       1 1      0.0000
    17 C14      2.8421   1.3362  -0.7888   C.3       1 1      0.0000
    18 H14B     1.9943   1.7637  -1.3383   H         1 1      0.0000
    19 H14A     3.6581   1.1836  -1.5057   H         1 1      0.0000
    20 N        3.2510  -1.0190  -0.1980   N.pl3     1 1      0.0000
    21 HN       2.9207  -1.8524   0.2882   H         1 1      0.0000
    22 C        4.6267  -1.0452  -0.6731   C.3       1 1      0.0000
    23 H1A      5.2372  -1.6962  -0.0508   H         1 1      0.0000
    24 H1C      4.6741  -1.4127  -1.6961   H         1 1      0.0000
    25 H1B      5.0625  -0.0487  -0.6510   H         1 1      0.0000
    26 H10A    -0.9294  -0.7108   1.9910   H         1 1      0.0000
    27 H10B    -0.7721  -2.4758   2.0401   H         1 1      0.0000
    28 H9B     -1.2473  -2.0142  -0.6479   H         1 1      0.0000
    29 H5      -4.4728   2.8434  -0.5451   H         1 1      0.0000
    30 H3      -1.2357   0.2383  -1.5300   H         1 1      0.0000
    31 H12B     0.3187   0.1296  -0.4486   H         1 1      0.0000
    32 C15      3.2915   2.3306   0.2657   C.3       1 1      0.0000
    33 H15A     4.1384   1.9085   0.8206   H         1 1      0.0000
    34 H15C     2.4733   2.4943   0.9779   H         1 1      0.0000
    35 OH       1.6228  -1.7383   2.0078   O.3       1 1      0.0000
    36 OH1      1.4488  -2.6437   2.3655   H         1 1      0.0000
    37 H22      0.9203  -2.2343   0.1253   H         1 1      0.0000
    38 C16      3.7021   3.6568  -0.3313   C.3       1 1      0.0000
    39 H16C     2.8730   4.1101  -0.8707   H         1 1      0.0000
    40 H16A     4.0189   4.3484   0.4465   H         1 1      0.0000
    41 H16B     4.5286   3.5272  -1.0269   H         1 1      0.0000
@<TRIPOS>BOND
     1     1     2   ar
     2     1     6   ar
     3     1    29    1
     4     2     3   ar
     5     2     7    1
     6     3     4   ar
     7     3    30    1
     8     4     5   ar
     9     4     8    1
    10     5     6   ar
    11     5     9    1
    12     6    10    1
    13     8    11    1
    14     8    12    1
    15     8    28    1
    16    11    13    1
    17    11    26    1
    18    11    27    1
    19    13    14    1
    20    14    15    1
    21    14    16    1
    22    14    31    1
    23    16    17    1
    24    16    20    2
    25    17    18    1
    26    17    19    1
    27    17    32    1
    28    20    21    1
    29    20    22    1
    30    22    23    1
    31    22    24    1
    32    22    25    1
    33    32    33    1
    34    32    34    1
    35    13    35    1
    36    35    36    1
    37    13    37    1
    38    32    38    1
    39    38    39    1
    40    38    40    1
    41    38    41    1
@<TRIPOS>SUBSTRUCTURE
     1 1           1 GROUP             0 ****  ****    0  
@<TRIPOS>MOLECULE
Molecule Name_00001_00403
    41    41     1     0     0
SMALL
NO_CHARGES
****
Generated from the CSD

@<TRIPOS>ATOM
     1 C5      -3.7992   2.0599   0.2425   C.ar      1 1      0.0000
     2 C4      -2.6004   2.0762  -0.4373   C.ar      1 1      0.0000
     3 C3      -1.9070   0.8969  -0.6529   C.ar      1 1      0.0000
     4 C8      -2.4033  -0.3131  -0.1927   C.ar      1 1      0.0000
     5 C7      -3.6096  -0.3143   0.4906   C.ar      1 1      0.0000
     6 C6      -4.3038   0.8644   0.7067   C.ar      1 1      0.0000
     7 H4      -2.1989   3.0150  -0.8043   H         1 1      0.0000
     8 C9      -1.6456  -1.5979  -0.4250   C.3       1 1      0.0000
     9 H7      -4.0149  -1.2503   0.8606   H         1 1      0.0000
    10 H6      -5.2470   0.8467   1.2427   H         1 1      0.0000
    11 C10     -0.7365  -1.9780   0.7421   C.3       1 1      0.0000
    12 H9A     -2.3641  -2.4089  -0.5966   H         1 1      0.0000
    13 C11      0.7457  -1.7203   0.5233   C.3       1 1      0.0000
    14 C12      1.0856  -0.2372   0.6216   C.3       1 1      0.0000
    15 H12A     0.8551   0.1170   1.6340   H         1 1      0.0000
    16 C13      2.5245   0.0520   0.3189   C.2       1 1      0.0000
    17 C14      2.9766   1.4788   0.4065   C.3       1 1      0.0000
    18 H14B     4.0570   1.4947   0.5963   H         1 1      0.0000
    19 H14A     2.4836   1.9621   1.2588   H         1 1      0.0000
    20 N        3.3569  -0.9209   0.0060   N.pl3     1 1      0.0000
    21 HN       2.9872  -1.8699   0.0595   H         1 1      0.0000
    22 C        4.7794  -0.7918  -0.2750   C.3       1 1      0.0000
    23 H1A      5.2755  -1.7575  -0.2048   H         1 1      0.0000
    24 H1C      4.9401  -0.4005  -1.2774   H         1 1      0.0000
    25 H1B      5.2534  -0.1149   0.4325   H         1 1      0.0000
    26 H10A    -1.0578  -1.4153   1.6273   H         1 1      0.0000
    27 H10B    -0.8743  -3.0452   0.9549   H         1 1      0.0000
    28 H9B     -1.0373  -1.4935  -1.3320   H         1 1      0.0000
    29 H5      -4.3428   2.9836   0.4114   H         1 1      0.0000
    30 H3      -0.9638   0.9202  -1.1886   H         1 1      0.0000
    31 H12B     0.4538   0.3219  -0.0795   H         1 1      0.0000
    32 C15      2.6898   2.2811  -0.8492   C.3       1 1      0.0000
    33 H15A     1.6107   2.2676  -1.0461   H         1 1      0.0000
    34 H15C     3.1912   1.8066  -1.7018   H         1 1      0.0000
    35 OH       1.4933  -2.4387   1.5086   O.3       1 1      0.0000
    36 OH1      1.2953  -3.4047   1.4342   H         1 1      0.0000
    37 H22      1.0276  -2.0848  -0.4767   H         1 1      0.0000
    38 C16      3.1548   3.7144  -0.7353   C.3       1 1      0.0000
    39 H16C     4.2278   3.7591  -0.5612   H         1 1      0.0000
    40 H16A     2.9364   4.2644  -1.6483   H         1 1      0.0000
    41 H16B     2.6562   4.2172   0.0907   H         1 1      0.0000
@<TRIPOS>BOND
     1     1     2   ar
     2     1     6   ar
     3     1    29    1
     4     2     3   ar
     5     2     7    1
     6     3     4   ar
     7     3    30    1
     8     4     5   ar
     9     4     8    1
    10     5     6   ar
    11     5     9    1
    12     6    10    1
    13     8    11    1
    14     8    12    1
    15     8    28    1
    16    11    13    1
    17    11    26    1
    18    11    27    1
    19    13    14    1
    20    14    15    1
    21    14    16    1
    22    14    31    1
    23    16    17    1
    24    16    20    2
    25    17    18    1
    26    17    19    1
    27    17    32    1
    28    20    21    1
    29    20    22    1
    30    22    23    1
    31    22    24    1
    32    22    25    1
    33    32    33    1
    34    32    34    1
    35    13    35    1
    36    35    36    1
    37    13    37    1
    38    32    38    1
    39    38    39    1
    40    38    40    1
    41    38    41    1
@<TRIPOS>SUBSTRUCTURE
     1 1           1 GROUP             0 ****  ****    0  
@<TRIPOS>MOLECULE
Molecule Name_00001_00404
    41    41     1     0     0
SMALL
NO_CHARGES
****
Generated from the CSD

@<TRIPOS>ATOM
     1 C5      -5.0413  -0.5626  -0.8208   C.ar      1 1      0.0000
     2 C4      -5.0625   0.0160   0.4299   C.ar      1 1      0.0000
     3 C3      -3.9230   0.6178   0.9373   C.ar      1 1      0.0000
     4 C8      -2.7488   0.6497   0.2010   C.ar      1 1      0.0000
     5 C7      -2.7416   0.0627  -1.0550   C.ar      1 1      0.0000
     6 C6      -3.8805  -0.5393  -1.5633   C.ar      1 1      0.0000
     7 H4      -5.9739  -0.0001   1.0184   H         1 1      0.0000
     8 C9      -1.5061   1.3029   0.7558   C.3       1 1      0.0000
     9 H7      -1.8324   0.0753  -1.6471   H         1 1      0.0000
    10 H6      -3.8588  -0.9938  -2.5483   H         1 1      0.0000
    11 C10     -0.6593   0.3574   1.6055   C.3       1 1      0.0000
    12 H9A     -0.8975   1.6756  -0.0775   H         1 1      0.0000
    13 C11      0.5339  -0.2627   0.8964   C.3       1 1      0.0000
    14 C12      1.6242   0.7648   0.6136   C.3       1 1      0.0000
    15 H12A     2.0143   1.1449   1.5659   H         1 1      0.0000
    16 C13      2.7584   0.2047  -0.1899   C.2       1 1      0.0000
    17 C14      3.8975   1.1242  -0.5133   C.3       1 1      0.0000
    18 H14B     3.4925   2.1140  -0.7578   H         1 1      0.0000
    19 H14A     4.4208   0.7518  -1.4024   H         1 1      0.0000
    20 N        2.7531  -1.0552  -0.5774   N.pl3     1 1      0.0000
    21 HN       1.9847  -1.6322  -0.2360   H         1 1      0.0000
    22 C        3.7972  -1.7391  -1.3265   C.3       1 1      0.0000
    23 H1A      3.8789  -2.7779  -1.0136   H         1 1      0.0000
    24 H1C      3.5803  -1.7225  -2.3926   H         1 1      0.0000
    25 H1B      4.7618  -1.2610  -1.1700   H         1 1      0.0000
    26 H10A    -0.2925   0.9122   2.4778   H         1 1      0.0000
    27 H10B    -1.3042  -0.4519   1.9697   H         1 1      0.0000
    28 H9B     -1.7997   2.1655   1.3666   H         1 1      0.0000
    29 H5      -5.9338  -1.0339  -1.2188   H         1 1      0.0000
    30 H3      -3.9497   1.0700   1.9232   H         1 1      0.0000
    31 H12B     1.1860   1.6114   0.0708   H         1 1      0.0000
    32 C15      4.8950   1.2716   0.6207   C.3       1 1      0.0000
    33 H15A     5.3027   0.2846   0.8718   H         1 1      0.0000
    34 H15C     4.3768   1.6549   1.5083   H         1 1      0.0000
    35 OH       1.0726  -1.3040   1.7158   O.3       1 1      0.0000
    36 OH1      0.3765  -1.9863   1.8832   H         1 1      0.0000
    37 H22      0.1965  -0.6960  -0.0579   H         1 1      0.0000
    38 C16      6.0324   2.2027   0.2696   C.3       1 1      0.0000
    39 H16C     5.6585   3.1975   0.0367   H         1 1      0.0000
    40 H16A     6.7305   2.2888   1.0996   H         1 1      0.0000
    41 H16B     6.5789   1.8346  -0.5962   H         1 1      0.0000
@<TRIPOS>BOND
     1     1     2   ar
     2     1     6   ar
     3     1    29    1
     4     2     3   ar
     5     2     7    1
     6     3     4   ar
     7     3    30    1
     8     4     5   ar
     9     4     8    1
    10     5     6   ar
    11     5     9    1
    12     6    10    1
    13     8    11    1
    14     8    12    1
    15     8    28    1
    16    11    13    1
    17    11    26    1
    18    11    27    1
    19    13    14    1
    20    14    15    1
    21    14    16    1
    22    14    31    1
    23    16    17    1
    24    16    20    2
    25    17    18    1
    26    17    19    1
    27    17    32    1
    28    20    21    1
    29    20    22    1
    30    22    23    1
    31    22    24    1
    32    22    25    1
    33    32    33    1
    34    32    34    1
    35    13    35    1
    36    35    36    1
    37    13    37    1
    38    32    38    1
    39    38    39    1
    40    38    40    1
    41    38    41    1
@<TRIPOS>SUBSTRUCTURE
     1 1           1 GROUP             0 ****  ****    0  
@<TRIPOS>MOLECULE
Molecule Name_00001_00405
    41    41     1     0     0
SMALL
NO_CHARGES
****
Generated from the CSD

@<TRIPOS>ATOM
     1 C5      -4.8638   0.1591  -1.0847   C.ar      1 1      0.0000
     2 C4      -4.9525   0.0526   0.2865   C.ar      1 1      0.0000
     3 C3      -3.8286   0.2430   1.0731   C.ar      1 1      0.0000
     4 C8      -2.6026   0.5429   0.4993   C.ar      1 1      0.0000
     5 C7      -2.5279   0.6457  -0.8813   C.ar      1 1      0.0000
     6 C6      -3.6512   0.4556  -1.6687   C.ar      1 1      0.0000
     7 H4      -5.9049  -0.1809   0.7509   H         1 1      0.0000
     8 C9      -1.3771   0.7470   1.3568   C.3       1 1      0.0000
     9 H7      -1.5777   0.8781  -1.3506   H         1 1      0.0000
    10 H6      -3.5764   0.5401  -2.7478   H         1 1      0.0000
    11 C10     -0.6380  -0.5532   1.6666   C.3       1 1      0.0000
    12 H9A     -0.6927   1.4327   0.8421   H         1 1      0.0000
    13 C11      0.5763  -0.8349   0.7964   C.3       1 1      0.0000
    14 C12      1.7285   0.1153   1.1034   C.3       1 1      0.0000
    15 H12A     2.0631  -0.0486   2.1352   H         1 1      0.0000
    16 C13      2.8936  -0.0636   0.1780   C.2       1 1      0.0000
    17 C14      4.0927   0.8088   0.3987   C.3       1 1      0.0000
    18 H14B     4.9751   0.3059  -0.0159   H         1 1      0.0000
    19 H14A     4.2570   0.9309   1.4763   H         1 1      0.0000
    20 N        2.8620  -0.9691  -0.7793   N.pl3     1 1      0.0000
    21 HN       2.0458  -1.5803  -0.7998   H         1 1      0.0000
    22 C        3.9278  -1.2755  -1.7222   C.3       1 1      0.0000
    23 H1A      3.7651  -2.2461  -2.1861   H         1 1      0.0000
    24 H1C      3.9721  -0.5267  -2.5103   H         1 1      0.0000
    25 H1B      4.8932  -1.2968  -1.2211   H         1 1      0.0000
    26 H10A    -0.3130  -0.5244   2.7139   H         1 1      0.0000
    27 H10B    -1.3429  -1.3867   1.5570   H         1 1      0.0000
    28 H9B     -1.6773   1.2204   2.2998   H         1 1      0.0000
    29 H5      -5.7441   0.0103  -1.7012   H         1 1      0.0000
    30 H3      -3.9085   0.1564   2.1516   H         1 1      0.0000
    31 H12B     1.3692   1.1491   1.0294   H         1 1      0.0000
    32 C15      3.9675   2.1798  -0.2397   C.3       1 1      0.0000
    33 H15A     3.0854   2.6878   0.1691   H         1 1      0.0000
    34 H15C     3.8146   2.0613  -1.3195   H         1 1      0.0000
    35 OH       1.0066  -2.1806   1.0194   O.3       1 1      0.0000
    36 OH1      0.2709  -2.8036   0.7990   H         1 1      0.0000
    37 H22      0.2920  -0.7201  -0.2611   H         1 1      0.0000
    38 C16      5.1880   3.0387  -0.0029   C.3       1 1      0.0000
    39 H16C     6.0770   2.5687  -0.4183   H         1 1      0.0000
    40 H16A     5.0701   4.0138  -0.4710   H         1 1      0.0000
    41 H16B     5.3515   3.1914   1.0618   H         1 1      0.0000
@<TRIPOS>BOND
     1     1     2   ar
     2     1     6   ar
     3     1    29    1
     4     2     3   ar
     5     2     7    1
     6     3     4   ar
     7     3    30    1
     8     4     5   ar
     9     4     8    1
    10     5     6   ar
    11     5     9    1
    12     6    10    1
    13     8    11    1
    14     8    12    1
    15     8    28    1
    16    11    13    1
    17    11    26    1
    18    11    27    1
    19    13    14    1
    20    14    15    1
    21    14    16    1
    22    14    31    1
    23    16    17    1
    24    16    20    2
    25    17    18    1
    26    17    19    1
    27    17    32    1
    28    20    21    1
    29    20    22    1
    30    22    23    1
    31    22    24    1
    32    22    25    1
    33    32    33    1
    34    32    34    1
    35    13    35    1
    36    35    36    1
    37    13    37    1
    38    32    38    1
    39    38    39    1
    40    38    40    1
    41    38    41    1
@<TRIPOS>SUBSTRUCTURE
     1 1           1 GROUP             0 ****  ****    0  
@<TRIPOS>MOLECULE
Molecule Name_00001_00406
    41    41     1     0     0
SMALL
NO_CHARGES
****
Generated from the CSD

@<TRIPOS>ATOM
     1 C5      -4.5996   0.9664  -1.0248   C.ar      1 1      0.0000
     2 C4      -4.3956  -0.3911  -0.9033   C.ar      1 1      0.0000
     3 C3      -3.3351  -0.8707  -0.1527   C.ar      1 1      0.0000
     4 C8      -2.4660   0.0003   0.4863   C.ar      1 1      0.0000
     5 C7      -2.6826   1.3633   0.3544   C.ar      1 1      0.0000
     6 C6      -3.7428   1.8438  -0.3960   C.ar      1 1      0.0000
     7 H4      -5.0672  -1.0858  -1.3968   H         1 1      0.0000
     8 C9      -1.3083  -0.5228   1.3017   C.3       1 1      0.0000
     9 H7      -2.0133   2.0621   0.8451   H         1 1      0.0000
    10 H6      -3.8992   2.9135  -0.4890   H         1 1      0.0000
    11 C10     -0.0532  -0.7754   0.4686   C.3       1 1      0.0000
    12 H9A     -1.0729   0.2016   2.0912   H         1 1      0.0000
    13 C11      1.1451  -1.3036   1.2407   C.3       1 1      0.0000
    14 C12      2.3486  -1.5357   0.3338   C.3       1 1      0.0000
    15 H12A     2.1389  -2.3835  -0.3301   H         1 1      0.0000
    16 C13      2.6909  -0.3372  -0.4981   C.2       1 1      0.0000
    17 C14      2.6429   1.0046   0.1690   C.3       1 1      0.0000
    18 H14B     1.7255   1.0679   0.7671   H         1 1      0.0000
    19 H14A     2.5929   1.7875  -0.5976   H         1 1      0.0000
    20 N        3.0371  -0.4703  -1.7629   N.pl3     1 1      0.0000
    21 HN       3.1325  -1.4247  -2.1097   H         1 1      0.0000
    22 C        3.4277   0.5952  -2.6746   C.3       1 1      0.0000
    23 H1A      4.1917   0.2490  -3.3676   H         1 1      0.0000
    24 H1C      2.5738   0.9376  -3.2554   H         1 1      0.0000
    25 H1B      3.8273   1.4458  -2.1267   H         1 1      0.0000
    26 H10A    -0.3015  -1.4969  -0.3195   H         1 1      0.0000
    27 H10B     0.2353   0.1652  -0.0167   H         1 1      0.0000
    28 H9B     -1.6091  -1.4595   1.7870   H         1 1      0.0000
    29 H5      -5.4305   1.3425  -1.6125   H         1 1      0.0000
    30 H3      -3.1825  -1.9412  -0.0636   H         1 1      0.0000
    31 H12B     3.2157  -1.8015   0.9509   H         1 1      0.0000
    32 C15      3.8332   1.2731   1.0712   C.3       1 1      0.0000
    33 H15A     4.7547   1.2093   0.4795   H         1 1      0.0000
    34 H15C     3.8793   0.4981   1.8463   H         1 1      0.0000
    35 OH       1.4982  -0.3591   2.2552   O.3       1 1      0.0000
    36 OH1      0.7332  -0.2320   2.8689   H         1 1      0.0000
    37 H22      0.8700  -2.2566   1.7185   H         1 1      0.0000
    38 C16      3.7609   2.6307   1.7310   C.3       1 1      0.0000
    39 H16C     2.8656   2.7147   2.3434   H         1 1      0.0000
    40 H16A     4.6256   2.7953   2.3705   H         1 1      0.0000
    41 H16B     3.7362   3.4216   0.9842   H         1 1      0.0000
@<TRIPOS>BOND
     1     1     2   ar
     2     1     6   ar
     3     1    29    1
     4     2     3   ar
     5     2     7    1
     6     3     4   ar
     7     3    30    1
     8     4     5   ar
     9     4     8    1
    10     5     6   ar
    11     5     9    1
    12     6    10    1
    13     8    11    1
    14     8    12    1
    15     8    28    1
    16    11    13    1
    17    11    26    1
    18    11    27    1
    19    13    14    1
    20    14    15    1
    21    14    16    1
    22    14    31    1
    23    16    17    1
    24    16    20    2
    25    17    18    1
    26    17    19    1
    27    17    32    1
    28    20    21    1
    29    20    22    1
    30    22    23    1
    31    22    24    1
    32    22    25    1
    33    32    33    1
    34    32    34    1
    35    13    35    1
    36    35    36    1
    37    13    37    1
    38    32    38    1
    39    38    39    1
    40    38    40    1
    41    38    41    1
@<TRIPOS>SUBSTRUCTURE
     1 1           1 GROUP             0 ****  ****    0  
@<TRIPOS>MOLECULE
Molecule Name_00001_00407
    41    41     1     0     0
SMALL
NO_CHARGES
****
Generated from the CSD

@<TRIPOS>ATOM
     1 C5      -4.6372   0.6104  -1.1388   C.ar      1 1      0.0000
     2 C4      -4.7261   0.3697   0.2152   C.ar      1 1      0.0000
     3 C3      -3.5761   0.2158   0.9714   C.ar      1 1      0.0000
     4 C8      -2.3232   0.3013   0.3840   C.ar      1 1      0.0000
     5 C7      -2.2488   0.5426  -0.9792   C.ar      1 1      0.0000
     6 C6      -3.3982   0.6966  -1.7362   C.ar      1 1      0.0000
     7 H4      -5.6993   0.3006   0.6899   H         1 1      0.0000
     8 C9      -1.0700   0.1302   1.2080   C.3       1 1      0.0000
     9 H7      -1.2780   0.6116  -1.4589   H         1 1      0.0000
    10 H6      -3.3231   0.8856  -2.8020   H         1 1      0.0000
    11 C10     -0.2373  -1.0801   0.7898   C.3       1 1      0.0000
    12 H9A     -0.4565   1.0348   1.1149   H         1 1      0.0000
    13 C11      1.0378  -1.3000   1.5878   C.3       1 1      0.0000
    14 C12      2.0156  -0.1411   1.4280   C.3       1 1      0.0000
    15 H12A     2.8494  -0.2765   2.1278   H         1 1      0.0000
    16 C13      2.5598  -0.0257   0.0365   C.2       1 1      0.0000
    17 C14      2.8775   1.3490  -0.4703   C.3       1 1      0.0000
    18 H14B     2.0943   2.0387  -0.1321   H         1 1      0.0000
    19 H14A     2.8615   1.3422  -1.5670   H         1 1      0.0000
    20 N        2.7646  -1.1001  -0.6991   N.pl3     1 1      0.0000
    21 HN       2.6082  -1.9991  -0.2437   H         1 1      0.0000
    22 C        3.3185  -1.1402  -2.0447   C.3       1 1      0.0000
    23 H1A      3.9242  -2.0330  -2.1860   H         1 1      0.0000
    24 H1C      2.5242  -1.1487  -2.7882   H         1 1      0.0000
    25 H1B      3.9466  -0.2716  -2.2304   H         1 1      0.0000
    26 H10A    -0.8617  -1.9773   0.8825   H         1 1      0.0000
    27 H10B     0.0316  -0.9666  -0.2676   H         1 1      0.0000
    28 H9B     -1.3495   0.0237   2.2634   H         1 1      0.0000
    29 H5      -5.5379   0.7313  -1.7315   H         1 1      0.0000
    30 H3      -3.6567   0.0260   2.0366   H         1 1      0.0000
    31 H12B     1.5074   0.7947   1.6914   H         1 1      0.0000
    32 C15      4.2229   1.8700   0.0002   C.3       1 1      0.0000
    33 H15A     5.0110   1.1835  -0.3331   H         1 1      0.0000
    34 H15C     4.2379   1.8890   1.0969   H         1 1      0.0000
    35 OH       0.7024  -1.4427   2.9709   O.3       1 1      0.0000
    36 OH1      0.0868  -2.2083   3.0843   H         1 1      0.0000
    37 H22      1.5220  -2.2253   1.2391   H         1 1      0.0000
    38 C16      4.5189   3.2561  -0.5240   C.3       1 1      0.0000
    39 H16C     3.7633   3.9642  -0.1901   H         1 1      0.0000
    40 H16A     5.4879   3.6030  -0.1713   H         1 1      0.0000
    41 H16B     4.5320   3.2623  -1.6119   H         1 1      0.0000
@<TRIPOS>BOND
     1     1     2   ar
     2     1     6   ar
     3     1    29    1
     4     2     3   ar
     5     2     7    1
     6     3     4   ar
     7     3    30    1
     8     4     5   ar
     9     4     8    1
    10     5     6   ar
    11     5     9    1
    12     6    10    1
    13     8    11    1
    14     8    12    1
    15     8    28    1
    16    11    13    1
    17    11    26    1
    18    11    27    1
    19    13    14    1
    20    14    15    1
    21    14    16    1
    22    14    31    1
    23    16    17    1
    24    16    20    2
    25    17    18    1
    26    17    19    1
    27    17    32    1
    28    20    21    1
    29    20    22    1
    30    22    23    1
    31    22    24    1
    32    22    25    1
    33    32    33    1
    34    32    34    1
    35    13    35    1
    36    35    36    1
    37    13    37    1
    38    32    38    1
    39    38    39    1
    40    38    40    1
    41    38    41    1
@<TRIPOS>SUBSTRUCTURE
     1 1           1 GROUP             0 ****  ****    0  
@<TRIPOS>MOLECULE
Molecule Name_00001_00408
    41    41     1     0     0
SMALL
NO_CHARGES
****
Generated from the CSD

@<TRIPOS>ATOM
     1 C5      -5.0253  -0.3612  -1.0408   C.ar      1 1      0.0000
     2 C4      -5.0334   0.0526   0.2737   C.ar      1 1      0.0000
     3 C3      -3.8499   0.4104   0.8976   C.ar      1 1      0.0000
     4 C8      -2.6440   0.3599   0.2155   C.ar      1 1      0.0000
     5 C7      -2.6506  -0.0594  -1.1059   C.ar      1 1      0.0000
     6 C6      -3.8335  -0.4174  -1.7307   C.ar      1 1      0.0000
     7 H4      -5.9691   0.0982   0.8211   H         1 1      0.0000
     8 C9      -1.3537   0.7469   0.8970   C.3       1 1      0.0000
     9 H7      -1.7174  -0.1077  -1.6574   H         1 1      0.0000
    10 H6      -3.8220  -0.7429  -2.7657   H         1 1      0.0000
    11 C10     -0.3601  -0.4085   1.0013   C.3       1 1      0.0000
    12 H9A     -0.8885   1.5683   0.3382   H         1 1      0.0000
    13 C11      0.9573  -0.0745   1.6824   C.3       1 1      0.0000
    14 C12      1.7683   0.9409   0.8850   C.3       1 1      0.0000
    15 H12A     2.4072   1.5088   1.5725   H         1 1      0.0000
    16 C13      2.6264   0.3049  -0.1661   C.2       1 1      0.0000
    17 C14      3.8351   1.0640  -0.6250   C.3       1 1      0.0000
    18 H14B     3.5747   2.1268  -0.7031   H         1 1      0.0000
    19 H14A     4.1198   0.7184  -1.6263   H         1 1      0.0000
    20 N        2.3307  -0.8852  -0.6493   N.pl3     1 1      0.0000
    21 HN       1.5446  -1.3691  -0.2157   H         1 1      0.0000
    22 C        3.0893  -1.6347  -1.6403   C.3       1 1      0.0000
    23 H1A      3.0400  -2.7024  -1.4370   H         1 1      0.0000
    24 H1C      2.6947  -1.4615  -2.6393   H         1 1      0.0000
    25 H1B      4.1354  -1.3362  -1.6332   H         1 1      0.0000
    26 H10A    -0.8380  -1.2257   1.5557   H         1 1      0.0000
    27 H10B    -0.1439  -0.7716  -0.0110   H         1 1      0.0000
    28 H9B     -1.5801   1.1152   1.9052   H         1 1      0.0000
    29 H5      -5.9523  -0.6414  -1.5301   H         1 1      0.0000
    30 H3      -3.8667   0.7343   1.9330   H         1 1      0.0000
    31 H12B     1.0819   1.6494   0.4050   H         1 1      0.0000
    32 C15      5.0266   0.9204   0.3037   C.3       1 1      0.0000
    33 H15A     5.2912  -0.1408   0.3880   H         1 1      0.0000
    34 H15C     4.7485   1.2761   1.3035   H         1 1      0.0000
    35 OH       0.6873   0.4583   2.9821   O.3       1 1      0.0000
    36 OH1      0.1818  -0.2056   3.5129   H         1 1      0.0000
    37 H22      1.5481  -0.9975   1.7891   H         1 1      0.0000
    38 C16      6.2308   1.6943  -0.1808   C.3       1 1      0.0000
    39 H16C     6.0034   2.7558  -0.2533   H         1 1      0.0000
    40 H16A     7.0680   1.5730   0.5032   H         1 1      0.0000
    41 H16B     6.5428   1.3467  -1.1635   H         1 1      0.0000
@<TRIPOS>BOND
     1     1     2   ar
     2     1     6   ar
     3     1    29    1
     4     2     3   ar
     5     2     7    1
     6     3     4   ar
     7     3    30    1
     8     4     5   ar
     9     4     8    1
    10     5     6   ar
    11     5     9    1
    12     6    10    1
    13     8    11    1
    14     8    12    1
    15     8    28    1
    16    11    13    1
    17    11    26    1
    18    11    27    1
    19    13    14    1
    20    14    15    1
    21    14    16    1
    22    14    31    1
    23    16    17    1
    24    16    20    2
    25    17    18    1
    26    17    19    1
    27    17    32    1
    28    20    21    1
    29    20    22    1
    30    22    23    1
    31    22    24    1
    32    22    25    1
    33    32    33    1
    34    32    34    1
    35    13    35    1
    36    35    36    1
    37    13    37    1
    38    32    38    1
    39    38    39    1
    40    38    40    1
    41    38    41    1
@<TRIPOS>SUBSTRUCTURE
     1 1           1 GROUP             0 ****  ****    0  
@<TRIPOS>MOLECULE
Molecule Name_00001_00409
    41    41     1     0     0
SMALL
NO_CHARGES
****
Generated from the CSD

@<TRIPOS>ATOM
     1 C5      -4.8229   0.3995  -1.1275   C.ar      1 1      0.0000
     2 C4      -4.8798   0.1987   0.2348   C.ar      1 1      0.0000
     3 C3      -3.7134   0.1464   0.9795   C.ar      1 1      0.0000
     4 C8      -2.4759   0.2950   0.3724   C.ar      1 1      0.0000
     5 C7      -2.4336   0.4951  -0.9988   C.ar      1 1      0.0000
     6 C6      -3.5995   0.5476  -1.7444   C.ar      1 1      0.0000
     7 H4      -5.8407   0.0813   0.7249   H         1 1      0.0000
     8 C9      -1.2045   0.2347   1.1841   C.3       1 1      0.0000
     9 H7      -1.4752   0.6122  -1.4939   H         1 1      0.0000
    10 H6      -3.5496   0.7055  -2.8167   H         1 1      0.0000
    11 C10     -0.2981  -0.9312   0.7939   C.3       1 1      0.0000
    12 H9A     -0.6537   1.1743   1.0532   H         1 1      0.0000
    13 C11      0.9968  -1.0411   1.5826   C.3       1 1      0.0000
    14 C12      1.9189   0.1467   1.3303   C.3       1 1      0.0000
    15 H12A     2.5532   0.3016   2.2118   H         1 1      0.0000
    16 C13      2.7922  -0.0390   0.1268   C.2       1 1      0.0000
    17 C14      4.0735   0.7377   0.0753   C.3       1 1      0.0000
    18 H14B     4.7785   0.2109  -0.5796   H         1 1      0.0000
    19 H14A     4.5157   0.7718   1.0785   H         1 1      0.0000
    20 N        2.4463  -0.8700  -0.8362   N.pl3     1 1      0.0000
    21 HN       1.6057  -1.4252  -0.6769   H         1 1      0.0000
    22 C        3.2094  -1.1750  -2.0377   C.3       1 1      0.0000
    23 H1A      2.8835  -2.1176  -2.4725   H         1 1      0.0000
    24 H1C      3.0800  -0.3947  -2.7847   H         1 1      0.0000
    25 H1B      4.2706  -1.2547  -1.8119   H         1 1      0.0000
    26 H10A    -0.8610  -1.8640   0.9224   H         1 1      0.0000
    27 H10B    -0.0481  -0.8343  -0.2699   H         1 1      0.0000
    28 H9B     -1.4640   0.1451   2.2462   H         1 1      0.0000
    29 H5      -5.7365   0.4408  -1.7112   H         1 1      0.0000
    30 H3      -3.7687  -0.0127   2.0514   H         1 1      0.0000
    31 H12B     1.3105   1.0493   1.1942   H         1 1      0.0000
    32 C15      3.8995   2.1560  -0.4356   C.3       1 1      0.0000
    33 H15A     3.1937   2.6883   0.2140   H         1 1      0.0000
    34 H15C     3.4680   2.1250  -1.4437   H         1 1      0.0000
    35 OH       0.6879  -1.1064   2.9776   O.3       1 1      0.0000
    36 OH1      0.1092  -1.8892   3.1516   H         1 1      0.0000
    37 H22      1.5174  -1.9652   1.2872   H         1 1      0.0000
    38 C16      5.2045   2.9169  -0.4778   C.3       1 1      0.0000
    39 H16C     5.9182   2.4224  -1.1334   H         1 1      0.0000
    40 H16A     5.0493   3.9285  -0.8471   H         1 1      0.0000
    41 H16B     5.6450   2.9824   0.5149   H         1 1      0.0000
@<TRIPOS>BOND
     1     1     2   ar
     2     1     6   ar
     3     1    29    1
     4     2     3   ar
     5     2     7    1
     6     3     4   ar
     7     3    30    1
     8     4     5   ar
     9     4     8    1
    10     5     6   ar
    11     5     9    1
    12     6    10    1
    13     8    11    1
    14     8    12    1
    15     8    28    1
    16    11    13    1
    17    11    26    1
    18    11    27    1
    19    13    14    1
    20    14    15    1
    21    14    16    1
    22    14    31    1
    23    16    17    1
    24    16    20    2
    25    17    18    1
    26    17    19    1
    27    17    32    1
    28    20    21    1
    29    20    22    1
    30    22    23    1
    31    22    24    1
    32    22    25    1
    33    32    33    1
    34    32    34    1
    35    13    35    1
    36    35    36    1
    37    13    37    1
    38    32    38    1
    39    38    39    1
    40    38    40    1
    41    38    41    1
@<TRIPOS>SUBSTRUCTURE
     1 1           1 GROUP             0 ****  ****    0  
@<TRIPOS>MOLECULE
Molecule Name_00001_00410
    41    41     1     0     0
SMALL
NO_CHARGES
****
Generated from the CSD

@<TRIPOS>ATOM
     1 C5      -4.9104   0.0128  -1.3132   C.ar      1 1      0.0000
     2 C4      -5.1380   0.1832   0.0354   C.ar      1 1      0.0000
     3 C3      -4.0753   0.2025   0.9232   C.ar      1 1      0.0000
     4 C8      -2.7721   0.0526   0.4744   C.ar      1 1      0.0000
     5 C7      -2.5581  -0.1192  -0.8845   C.ar      1 1      0.0000
     6 C6      -3.6201  -0.1386  -1.7732   C.ar      1 1      0.0000
     7 H4      -6.1521   0.3025   0.4023   H         1 1      0.0000
     8 C9      -1.6143   0.0705   1.4429   C.3       1 1      0.0000
     9 H7      -1.5460  -0.2398  -1.2565   H         1 1      0.0000
    10 H6      -3.4359  -0.2734  -2.8339   H         1 1      0.0000
    11 C10     -0.2591  -0.1087   0.7614   C.3       1 1      0.0000
    12 H9A     -1.6180   1.0243   1.9846   H         1 1      0.0000
    13 C11      0.9435  -0.0985   1.6913   C.3       1 1      0.0000
    14 C12      2.0456   0.8257   1.1855   C.3       1 1      0.0000
    15 H12A     2.7973   0.9525   1.9744   H         1 1      0.0000
    16 C13      2.7174   0.3092  -0.0505   C.2       1 1      0.0000
    17 C14      3.8149   1.1426  -0.6410   C.3       1 1      0.0000
    18 H14B     3.5275   2.1994  -0.5776   H         1 1      0.0000
    19 H14A     3.9261   0.8929  -1.7033   H         1 1      0.0000
    20 N        2.3614  -0.8441  -0.5801   N.pl3     1 1      0.0000
    21 HN       1.6711  -1.3879  -0.0625   H         1 1      0.0000
    22 C        2.9475  -1.4818  -1.7501   C.3       1 1      0.0000
    23 H1A      2.9519  -2.5640  -1.6378   H         1 1      0.0000
    24 H1C      2.3818  -1.2366  -2.6465   H         1 1      0.0000
    25 H1B      3.9738  -1.1521  -1.8968   H         1 1      0.0000
    26 H10A    -0.2686  -1.0625   0.2197   H         1 1      0.0000
    27 H10B    -0.1333   0.6942   0.0245   H         1 1      0.0000
    28 H9B     -1.7528  -0.7316   2.1783   H         1 1      0.0000
    29 H5      -5.7427  -0.0021  -2.0091   H         1 1      0.0000
    30 H3      -4.2650   0.3366   1.9830   H         1 1      0.0000
    31 H12B     1.6157   1.8122   0.9725   H         1 1      0.0000
    32 C15      5.1524   0.9581   0.0518   C.3       1 1      0.0000
    33 H15A     5.4450  -0.0975  -0.0062   H         1 1      0.0000
    34 H15C     5.0472   1.2182   1.1123   H         1 1      0.0000
    35 OH       0.5254   0.3369   2.9880   O.3       1 1      0.0000
    36 OH1      0.0154  -0.3856   3.4307   H         1 1      0.0000
    37 H22      1.3437  -1.1213   1.7685   H         1 1      0.0000
    38 C16      6.2406   1.8083  -0.5619   C.3       1 1      0.0000
    39 H16C     5.9868   2.8644  -0.4987   H         1 1      0.0000
    40 H16A     7.1863   1.6557  -0.0460   H         1 1      0.0000
    41 H16B     6.3820   1.5559  -1.6107   H         1 1      0.0000
@<TRIPOS>BOND
     1     1     2   ar
     2     1     6   ar
     3     1    29    1
     4     2     3   ar
     5     2     7    1
     6     3     4   ar
     7     3    30    1
     8     4     5   ar
     9     4     8    1
    10     5     6   ar
    11     5     9    1
    12     6    10    1
    13     8    11    1
    14     8    12    1
    15     8    28    1
    16    11    13    1
    17    11    26    1
    18    11    27    1
    19    13    14    1
    20    14    15    1
    21    14    16    1
    22    14    31    1
    23    16    17    1
    24    16    20    2
    25    17    18    1
    26    17    19    1
    27    17    32    1
    28    20    21    1
    29    20    22    1
    30    22    23    1
    31    22    24    1
    32    22    25    1
    33    32    33    1
    34    32    34    1
    35    13    35    1
    36    35    36    1
    37    13    37    1
    38    32    38    1
    39    38    39    1
    40    38    40    1
    41    38    41    1
@<TRIPOS>SUBSTRUCTURE
     1 1           1 GROUP             0 ****  ****    0  
@<TRIPOS>MOLECULE
Molecule Name_00001_00411
    41    41     1     0     0
SMALL
NO_CHARGES
****
Generated from the CSD

@<TRIPOS>ATOM
     1 C5      -4.6513   0.8234  -1.1741   C.ar      1 1      0.0000
     2 C4      -4.9193   0.4555   0.1268   C.ar      1 1      0.0000
     3 C3      -3.8955   0.0198   0.9514   C.ar      1 1      0.0000
     4 C8      -2.5914  -0.0528   0.4867   C.ar      1 1      0.0000
     5 C7      -2.3366   0.3192  -0.8243   C.ar      1 1      0.0000
     6 C6      -3.3596   0.7551  -1.6498   C.ar      1 1      0.0000
     7 H4      -5.9347   0.5073   0.5057   H         1 1      0.0000
     8 C9      -1.4763  -0.5309   1.3849   C.3       1 1      0.0000
     9 H7      -1.3231   0.2684  -1.2084   H         1 1      0.0000
    10 H6      -3.1438   1.0433  -2.6733   H         1 1      0.0000
    11 C10     -0.1131  -0.5411   0.6958   C.3       1 1      0.0000
    12 H9A     -1.4256   0.1198   2.2666   H         1 1      0.0000
    13 C11      1.0475  -1.0146   1.5559   C.3       1 1      0.0000
    14 C12      2.2398  -0.0680   1.4731   C.3       1 1      0.0000
    15 H12A     2.9665  -0.3380   2.2493   H         1 1      0.0000
    16 C13      2.9178  -0.1004   0.1371   C.2       1 1      0.0000
    17 C14      4.1016   0.7982  -0.0600   C.3       1 1      0.0000
    18 H14B     4.7332   0.3796  -0.8533   H         1 1      0.0000
    19 H14A     4.6969   0.8184   0.8610   H         1 1      0.0000
    20 N        2.4924  -0.9053  -0.8160   N.pl3     1 1      0.0000
    21 HN       1.7402  -1.5473  -0.5664   H         1 1      0.0000
    22 C        3.0726  -1.0671  -2.1412   C.3       1 1      0.0000
    23 H1A      2.7641  -2.0115  -2.5846   H         1 1      0.0000
    24 H1C      2.7549  -0.2630  -2.8017   H         1 1      0.0000
    25 H1B      4.1593  -1.0548  -2.0917   H         1 1      0.0000
    26 H10A    -0.1770  -1.1906  -0.1859   H         1 1      0.0000
    27 H10B     0.1065   0.4759   0.3479   H         1 1      0.0000
    28 H9B     -1.7085  -1.5454   1.7317   H         1 1      0.0000
    29 H5      -5.4530   1.1651  -1.8203   H         1 1      0.0000
    30 H3      -4.1169  -0.2682   1.9738   H         1 1      0.0000
    31 H12B     1.8994   0.9549   1.6761   H         1 1      0.0000
    32 C15      3.7248   2.2195  -0.4350   C.3       1 1      0.0000
    33 H15A     3.0912   2.6437   0.3536   H         1 1      0.0000
    34 H15C     3.1389   2.2037  -1.3623   H         1 1      0.0000
    35 OH       0.6131  -1.1031   2.9158   O.3       1 1      0.0000
    36 OH1      0.0787  -1.9261   3.0391   H         1 1      0.0000
    37 H22      1.3610  -2.0131   1.2141   H         1 1      0.0000
    38 C16      4.9348   3.1041  -0.6278   C.3       1 1      0.0000
    39 H16C     5.5719   2.7186  -1.4210   H         1 1      0.0000
    40 H16A     4.6347   4.1151  -0.8953   H         1 1      0.0000
    41 H16B     5.5241   3.1559   0.2853   H         1 1      0.0000
@<TRIPOS>BOND
     1     1     2   ar
     2     1     6   ar
     3     1    29    1
     4     2     3   ar
     5     2     7    1
     6     3     4   ar
     7     3    30    1
     8     4     5   ar
     9     4     8    1
    10     5     6   ar
    11     5     9    1
    12     6    10    1
    13     8    11    1
    14     8    12    1
    15     8    28    1
    16    11    13    1
    17    11    26    1
    18    11    27    1
    19    13    14    1
    20    14    15    1
    21    14    16    1
    22    14    31    1
    23    16    17    1
    24    16    20    2
    25    17    18    1
    26    17    19    1
    27    17    32    1
    28    20    21    1
    29    20    22    1
    30    22    23    1
    31    22    24    1
    32    22    25    1
    33    32    33    1
    34    32    34    1
    35    13    35    1
    36    35    36    1
    37    13    37    1
    38    32    38    1
    39    38    39    1
    40    38    40    1
    41    38    41    1
@<TRIPOS>SUBSTRUCTURE
     1 1           1 GROUP             0 ****  ****    0  
@<TRIPOS>MOLECULE
Molecule Name_00001_00412
    41    41     1     0     0
SMALL
NO_CHARGES
****
Generated from the CSD

@<TRIPOS>ATOM
     1 C5      -4.8088   0.4950  -1.2808   C.ar      1 1      0.0000
     2 C4      -4.0744  -0.6620  -1.4269   C.ar      1 1      0.0000
     3 C3      -3.0281  -0.9356  -0.5617   C.ar      1 1      0.0000
     4 C8      -2.7034  -0.0570   0.4604   C.ar      1 1      0.0000
     5 C7      -3.4499   1.1035   0.5947   C.ar      1 1      0.0000
     6 C6      -4.4964   1.3780  -0.2699   C.ar      1 1      0.0000
     7 H4      -4.3163  -1.3600  -2.2215   H         1 1      0.0000
     8 C9      -1.5608  -0.3541   1.4012   C.3       1 1      0.0000
     9 H7      -3.2114   1.8053   1.3871   H         1 1      0.0000
    10 H6      -5.0715   2.2904  -0.1511   H         1 1      0.0000
    11 C10     -0.2294  -0.5612   0.6818   C.3       1 1      0.0000
    12 H9A     -1.4580   0.4769   2.1099   H         1 1      0.0000
    13 C11      0.9570  -0.8638   1.5827   C.3       1 1      0.0000
    14 C12      2.2336  -1.0976   0.7825   C.3       1 1      0.0000
    15 H12A     2.1038  -1.9859   0.1519   H         1 1      0.0000
    16 C13      2.5989   0.0681  -0.0854   C.2       1 1      0.0000
    17 C14      3.7017   0.9657   0.3899   C.3       1 1      0.0000
    18 H14B     3.6016   1.1029   1.4736   H         1 1      0.0000
    19 H14A     3.5931   1.9509  -0.0799   H         1 1      0.0000
    20 N        1.9800   0.2771  -1.2302   N.pl3     1 1      0.0000
    21 HN       1.3075  -0.4331  -1.5193   H         1 1      0.0000
    22 C        2.2535   1.3410  -2.1854   C.3       1 1      0.0000
    23 H1A      2.1035   0.9919  -3.2049   H         1 1      0.0000
    24 H1C      1.5931   2.1891  -2.0171   H         1 1      0.0000
    25 H1B      3.2804   1.6884  -2.0936   H         1 1      0.0000
    26 H10A    -0.3454  -1.3906  -0.0268   H         1 1      0.0000
    27 H10B    -0.0034   0.3439   0.1045   H         1 1      0.0000
    28 H9B     -1.7994  -1.2566   1.9773   H         1 1      0.0000
    29 H5      -5.6287   0.7096  -1.9582   H         1 1      0.0000
    30 H3      -2.4555  -1.8489  -0.6854   H         1 1      0.0000
    31 H12B     3.0591  -1.2988   1.4764   H         1 1      0.0000
    32 C15      5.0889   0.4274   0.0921   C.3       1 1      0.0000
    33 H15A     5.1951   0.2859  -0.9905   H         1 1      0.0000
    34 H15C     5.2047  -0.5530   0.5704   H         1 1      0.0000
    35 OH       1.1576   0.2370   2.4736   O.3       1 1      0.0000
    36 OH1      0.3409   0.3786   3.0131   H         1 1      0.0000
    37 H22      0.7360  -1.7667   2.1728   H         1 1      0.0000
    38 C16      6.1815   1.3499   0.5808   C.3       1 1      0.0000
    39 H16C     6.1139   1.4915   1.6574   H         1 1      0.0000
    40 H16A     7.1631   0.9392   0.3540   H         1 1      0.0000
    41 H16B     6.1041   2.3254   0.1052   H         1 1      0.0000
@<TRIPOS>BOND
     1     1     2   ar
     2     1     6   ar
     3     1    29    1
     4     2     3   ar
     5     2     7    1
     6     3     4   ar
     7     3    30    1
     8     4     5   ar
     9     4     8    1
    10     5     6   ar
    11     5     9    1
    12     6    10    1
    13     8    11    1
    14     8    12    1
    15     8    28    1
    16    11    13    1
    17    11    26    1
    18    11    27    1
    19    13    14    1
    20    14    15    1
    21    14    16    1
    22    14    31    1
    23    16    17    1
    24    16    20    2
    25    17    18    1
    26    17    19    1
    27    17    32    1
    28    20    21    1
    29    20    22    1
    30    22    23    1
    31    22    24    1
    32    22    25    1
    33    32    33    1
    34    32    34    1
    35    13    35    1
    36    35    36    1
    37    13    37    1
    38    32    38    1
    39    38    39    1
    40    38    40    1
    41    38    41    1
@<TRIPOS>SUBSTRUCTURE
     1 1           1 GROUP             0 ****  ****    0  
@<TRIPOS>MOLECULE
Molecule Name_00001_00413
    41    41     1     0     0
SMALL
NO_CHARGES
****
Generated from the CSD

@<TRIPOS>ATOM
     1 C5      -4.9546   0.3665   0.4652   C.ar      1 1      0.0000
     2 C4      -4.6574   0.1620  -0.8650   C.ar      1 1      0.0000
     3 C3      -3.3902  -0.2533  -1.2386   C.ar      1 1      0.0000
     4 C8      -2.4047  -0.4702  -0.2878   C.ar      1 1      0.0000
     5 C7      -2.7174  -0.2594   1.0463   C.ar      1 1      0.0000
     6 C6      -3.9844   0.1560   1.4210   C.ar      1 1      0.0000
     7 H4      -5.4179   0.3269  -1.6211   H         1 1      0.0000
     8 C9      -1.0226  -0.9199  -0.6958   C.3       1 1      0.0000
     9 H7      -1.9603  -0.4219   1.8063   H         1 1      0.0000
    10 H6      -4.2136   0.3160   2.4694   H         1 1      0.0000
    11 C10     -0.0913   0.2407  -1.0403   C.3       1 1      0.0000
    12 H9A     -0.5810  -1.5008   0.1233   H         1 1      0.0000
    13 C11      0.3238   1.1128   0.1337   C.3       1 1      0.0000
    14 C12      1.2623   0.3776   1.0842   C.3       1 1      0.0000
    15 H12A     0.7218  -0.4570   1.5474   H         1 1      0.0000
    16 C13      2.4859  -0.1525   0.4005   C.2       1 1      0.0000
    17 C14      3.5903   0.8182   0.1078   C.3       1 1      0.0000
    18 H14B     3.1478   1.7645  -0.2269   H         1 1      0.0000
    19 H14A     4.2035   0.4302  -0.7147   H         1 1      0.0000
    20 N        2.5847  -1.4294   0.0886   N.pl3     1 1      0.0000
    21 HN       1.8276  -2.0345   0.4062   H         1 1      0.0000
    22 C        3.7217  -2.0857  -0.5403   C.3       1 1      0.0000
    23 H1A      3.8402  -3.0987  -0.1615   H         1 1      0.0000
    24 H1C      3.5868  -2.1408  -1.6185   H         1 1      0.0000
    25 H1B      4.6416  -1.5398  -0.3420   H         1 1      0.0000
    26 H10A     0.8148  -0.1695  -1.5030   H         1 1      0.0000
    27 H10B    -0.5894   0.8754  -1.7836   H         1 1      0.0000
    28 H9B     -1.1061  -1.5813  -1.5670   H         1 1      0.0000
    29 H5      -5.9474   0.6917   0.7583   H         1 1      0.0000
    30 H3      -3.1659  -0.4110  -2.2884   H         1 1      0.0000
    31 H12B     1.5689   1.0621   1.8848   H         1 1      0.0000
    32 C15      4.4846   1.0932   1.3025   C.3       1 1      0.0000
    33 H15A     4.9291   0.1502   1.6439   H         1 1      0.0000
    34 H15C     3.8760   1.4924   2.1233   H         1 1      0.0000
    35 OH       0.9819   2.2810  -0.3641   O.3       1 1      0.0000
    36 OH1      0.3695   2.7754  -0.9630   H         1 1      0.0000
    37 H22     -0.5773   1.4178   0.6880   H         1 1      0.0000
    38 C16      5.5887   2.0738   0.9816   C.3       1 1      0.0000
    39 H16C     5.1759   3.0278   0.6603   H         1 1      0.0000
    40 H16A     6.2128   2.2514   1.8549   H         1 1      0.0000
    41 H16B     6.2229   1.6930   0.1837   H         1 1      0.0000
@<TRIPOS>BOND
     1     1     2   ar
     2     1     6   ar
     3     1    29    1
     4     2     3   ar
     5     2     7    1
     6     3     4   ar
     7     3    30    1
     8     4     5   ar
     9     4     8    1
    10     5     6   ar
    11     5     9    1
    12     6    10    1
    13     8    11    1
    14     8    12    1
    15     8    28    1
    16    11    13    1
    17    11    26    1
    18    11    27    1
    19    13    14    1
    20    14    15    1
    21    14    16    1
    22    14    31    1
    23    16    17    1
    24    16    20    2
    25    17    18    1
    26    17    19    1
    27    17    32    1
    28    20    21    1
    29    20    22    1
    30    22    23    1
    31    22    24    1
    32    22    25    1
    33    32    33    1
    34    32    34    1
    35    13    35    1
    36    35    36    1
    37    13    37    1
    38    32    38    1
    39    38    39    1
    40    38    40    1
    41    38    41    1
@<TRIPOS>SUBSTRUCTURE
     1 1           1 GROUP             0 ****  ****    0  
@<TRIPOS>MOLECULE
Molecule Name_00001_00414
    41    41     1     0     0
SMALL
NO_CHARGES
****
Generated from the CSD

@<TRIPOS>ATOM
     1 C5      -4.7343   0.5616  -0.3524   C.ar      1 1      0.0000
     2 C4      -4.4626   0.1820   0.9443   C.ar      1 1      0.0000
     3 C3      -3.1598   0.1935   1.4139   C.ar      1 1      0.0000
     4 C8      -2.1127   0.5852   0.5940   C.ar      1 1      0.0000
     5 C7      -2.4006   0.9634  -0.7084   C.ar      1 1      0.0000
     6 C6      -3.7030   0.9522  -1.1790   C.ar      1 1      0.0000
     7 H4      -5.2712  -0.1266   1.5986   H         1 1      0.0000
     8 C9      -0.6924   0.5945   1.1054   C.3       1 1      0.0000
     9 H7      -1.5955   1.2719  -1.3671   H         1 1      0.0000
    10 H6      -3.9119   1.2516  -2.2007   H         1 1      0.0000
    11 C10      0.0110  -0.7521   0.9476   C.3       1 1      0.0000
    12 H9A     -0.1238   1.3599   0.5630   H         1 1      0.0000
    13 C11      0.3195  -1.1615  -0.4836   C.3       1 1      0.0000
    14 C12      1.3561  -0.2462  -1.1259   C.3       1 1      0.0000
    15 H12A     0.9473   0.7698  -1.1885   H         1 1      0.0000
    16 C13      2.6481  -0.2069  -0.3679   C.2       1 1      0.0000
    17 C14      2.7774   0.8094   0.7267   C.3       1 1      0.0000
    18 H14B     3.4926   0.4369   1.4704   H         1 1      0.0000
    19 H14A     1.8087   0.9253   1.2281   H         1 1      0.0000
    20 N        3.6212  -1.0504  -0.6489   N.pl3     1 1      0.0000
    21 HN       3.4146  -1.7669  -1.3446   H         1 1      0.0000
    22 C        4.9078  -1.1497   0.0249   C.3       1 1      0.0000
    23 H1A      5.3885  -2.0995  -0.2000   H         1 1      0.0000
    24 H1C      5.5726  -0.3497  -0.2941   H         1 1      0.0000
    25 H1B      4.7859  -1.0786   1.1036   H         1 1      0.0000
    26 H10A     0.9537  -0.7167   1.5075   H         1 1      0.0000
    27 H10B    -0.6193  -1.5271   1.4009   H         1 1      0.0000
    28 H9B     -0.6979   0.8722   2.1666   H         1 1      0.0000
    29 H5      -5.7549   0.5530  -0.7207   H         1 1      0.0000
    30 H3      -2.9562  -0.1077   2.4362   H         1 1      0.0000
    31 H12B     1.5525  -0.5905  -2.1488   H         1 1      0.0000
    32 C15      3.2451   2.1676   0.2373   C.3       1 1      0.0000
    33 H15A     2.5350   2.5453  -0.5087   H         1 1      0.0000
    34 H15C     4.2194   2.0568  -0.2546   H         1 1      0.0000
    35 OH       0.8134  -2.5039  -0.4874   O.3       1 1      0.0000
    36 OH1      0.1353  -3.1065  -0.0936   H         1 1      0.0000
    37 H22     -0.6082  -1.1192  -1.0749   H         1 1      0.0000
    38 C16      3.3671   3.1730   1.3588   C.3       1 1      0.0000
    39 H16C     4.0831   2.8339   2.1046   H         1 1      0.0000
    40 H16A     3.7035   4.1355   0.9791   H         1 1      0.0000
    41 H16B     2.4082   3.3194   1.8516   H         1 1      0.0000
@<TRIPOS>BOND
     1     1     2   ar
     2     1     6   ar
     3     1    29    1
     4     2     3   ar
     5     2     7    1
     6     3     4   ar
     7     3    30    1
     8     4     5   ar
     9     4     8    1
    10     5     6   ar
    11     5     9    1
    12     6    10    1
    13     8    11    1
    14     8    12    1
    15     8    28    1
    16    11    13    1
    17    11    26    1
    18    11    27    1
    19    13    14    1
    20    14    15    1
    21    14    16    1
    22    14    31    1
    23    16    17    1
    24    16    20    2
    25    17    18    1
    26    17    19    1
    27    17    32    1
    28    20    21    1
    29    20    22    1
    30    22    23    1
    31    22    24    1
    32    22    25    1
    33    32    33    1
    34    32    34    1
    35    13    35    1
    36    35    36    1
    37    13    37    1
    38    32    38    1
    39    38    39    1
    40    38    40    1
    41    38    41    1
@<TRIPOS>SUBSTRUCTURE
     1 1           1 GROUP             0 ****  ****    0  
@<TRIPOS>MOLECULE
Molecule Name_00001_00415
    41    41     1     0     0
SMALL
NO_CHARGES
****
Generated from the CSD

@<TRIPOS>ATOM
     1 C5      -4.7895   0.5989  -0.2718   C.ar      1 1      0.0000
     2 C4      -4.1360  -0.4574  -0.8689   C.ar      1 1      0.0000
     3 C3      -2.9039  -0.8724  -0.3916   C.ar      1 1      0.0000
     4 C8      -2.3102  -0.2376   0.6885   C.ar      1 1      0.0000
     5 C7      -2.9784   0.8242   1.2785   C.ar      1 1      0.0000
     6 C6      -4.2105   1.2400   0.8020   C.ar      1 1      0.0000
     7 H4      -4.5877  -0.9650  -1.7148   H         1 1      0.0000
     8 C9      -0.9657  -0.6882   1.2064   C.3       1 1      0.0000
     9 H7      -2.5306   1.3358   2.1241   H         1 1      0.0000
    10 H6      -4.7211   2.0723   1.2751   H         1 1      0.0000
    11 C10      0.1278  -0.6611   0.1404   C.3       1 1      0.0000
    12 H9A     -0.6689  -0.0383   2.0388   H         1 1      0.0000
    13 C11      0.5775   0.7241  -0.2957   C.3       1 1      0.0000
    14 C12      1.7028   0.6596  -1.3224   C.3       1 1      0.0000
    15 H12A     1.9038   1.6705  -1.6980   H         1 1      0.0000
    16 C13      2.9693   0.0857  -0.7635   C.2       1 1      0.0000
    17 C14      3.7773   0.9547   0.1528   C.3       1 1      0.0000
    18 H14B     3.6527   2.0008  -0.1533   H         1 1      0.0000
    19 H14A     4.8395   0.7028   0.0458   H         1 1      0.0000
    20 N        3.3405  -1.1442  -1.0584   N.pl3     1 1      0.0000
    21 HN       2.6864  -1.6953  -1.6138   H         1 1      0.0000
    22 C        4.5193  -1.8395  -0.5624   C.3       1 1      0.0000
    23 H1A      4.3135  -2.8992  -0.4271   H         1 1      0.0000
    24 H1C      5.3470  -1.7418  -1.2617   H         1 1      0.0000
    25 H1B      4.8352  -1.4306   0.3950   H         1 1      0.0000
    26 H10A     1.0005  -1.2016   0.5273   H         1 1      0.0000
    27 H10B    -0.2362  -1.2006  -0.7428   H         1 1      0.0000
    28 H9B     -1.0585  -1.7092   1.5968   H         1 1      0.0000
    29 H5      -5.7549   0.9241  -0.6453   H         1 1      0.0000
    30 H3      -2.3971  -1.7046  -0.8689   H         1 1      0.0000
    31 H12B     1.3774   0.0465  -2.1719   H         1 1      0.0000
    32 C15      3.3837   0.8232   1.6124   C.3       1 1      0.0000
    33 H15A     3.4812  -0.2258   1.9182   H         1 1      0.0000
    34 H15C     2.3309   1.1088   1.7284   H         1 1      0.0000
    35 OH      -0.5366   1.4174  -0.8647   O.3       1 1      0.0000
    36 OH1     -1.0482   1.8660  -0.1469   H         1 1      0.0000
    37 H22      0.9320   1.2786   0.5869   H         1 1      0.0000
    38 C16      4.2338   1.6842   2.5178   C.3       1 1      0.0000
    39 H16C     4.1395   2.7348   2.2510   H         1 1      0.0000
    40 H16A     3.9296   1.5696   3.5561   H         1 1      0.0000
    41 H16B     5.2831   1.4074   2.4395   H         1 1      0.0000
@<TRIPOS>BOND
     1     1     2   ar
     2     1     6   ar
     3     1    29    1
     4     2     3   ar
     5     2     7    1
     6     3     4   ar
     7     3    30    1
     8     4     5   ar
     9     4     8    1
    10     5     6   ar
    11     5     9    1
    12     6    10    1
    13     8    11    1
    14     8    12    1
    15     8    28    1
    16    11    13    1
    17    11    26    1
    18    11    27    1
    19    13    14    1
    20    14    15    1
    21    14    16    1
    22    14    31    1
    23    16    17    1
    24    16    20    2
    25    17    18    1
    26    17    19    1
    27    17    32    1
    28    20    21    1
    29    20    22    1
    30    22    23    1
    31    22    24    1
    32    22    25    1
    33    32    33    1
    34    32    34    1
    35    13    35    1
    36    35    36    1
    37    13    37    1
    38    32    38    1
    39    38    39    1
    40    38    40    1
    41    38    41    1
@<TRIPOS>SUBSTRUCTURE
     1 1           1 GROUP             0 ****  ****    0  
@<TRIPOS>MOLECULE
Molecule Name_00001_00416
    41    41     1     0     0
SMALL
NO_CHARGES
****
Generated from the CSD

@<TRIPOS>ATOM
     1 C5      -4.8884   0.8372  -0.2823   C.ar      1 1      0.0000
     2 C4      -4.2322   0.0152  -1.1729   C.ar      1 1      0.0000
     3 C3      -3.0698  -0.6348  -0.7930   C.ar      1 1      0.0000
     4 C8      -2.5492  -0.4720   0.4817   C.ar      1 1      0.0000
     5 C7      -3.2190   0.3588   1.3667   C.ar      1 1      0.0000
     6 C6      -4.3815   1.0092   0.9877   C.ar      1 1      0.0000
     7 H4      -4.6272  -0.1231  -2.1739   H         1 1      0.0000
     8 C9      -1.2803  -1.1780   0.8943   C.3       1 1      0.0000
     9 H7      -2.8277   0.5012   2.3686   H         1 1      0.0000
    10 H6      -4.8944   1.6556   1.6922   H         1 1      0.0000
    11 C10     -0.0933  -0.8576  -0.0120   C.3       1 1      0.0000
    12 H9A     -1.0315  -0.8906   1.9233   H         1 1      0.0000
    13 C11      0.4581   0.5536   0.1124   C.3       1 1      0.0000
    14 C12      1.6689   0.7723  -0.7882   C.3       1 1      0.0000
    15 H12A     1.9112   1.8420  -0.8096   H         1 1      0.0000
    16 C13      2.8760   0.0073  -0.3374   C.2       1 1      0.0000
    17 C14      3.5751   0.4843   0.9001   C.3       1 1      0.0000
    18 H14B     4.1192  -0.3585   1.3442   H         1 1      0.0000
    19 H14A     2.8283   0.8180   1.6308   H         1 1      0.0000
    20 N        3.2887  -1.0542  -1.0010   N.pl3     1 1      0.0000
    21 HN       2.7017  -1.3618  -1.7763   H         1 1      0.0000
    22 C        4.4164  -1.9091  -0.6599   C.3       1 1      0.0000
    23 H1A      4.3263  -2.8785  -1.1457   H         1 1      0.0000
    24 H1C      5.3532  -1.4565  -0.9783   H         1 1      0.0000
    25 H1B      4.4672  -2.0718   0.4145   H         1 1      0.0000
    26 H10A     0.7141  -1.5650   0.2138   H         1 1      0.0000
    27 H10B    -0.3991  -1.0190  -1.0530   H         1 1      0.0000
    28 H9B     -1.4557  -2.2609   0.8834   H         1 1      0.0000
    29 H5      -5.7992   1.3463  -0.5795   H         1 1      0.0000
    30 H3      -2.5603  -1.2793  -1.5016   H         1 1      0.0000
    31 H12B     1.4141   0.4674  -1.8107   H         1 1      0.0000
    32 C15      4.5534   1.6154   0.6428   C.3       1 1      0.0000
    33 H15A     4.0160   2.4613   0.1966   H         1 1      0.0000
    34 H15C     5.3086   1.2808  -0.0791   H         1 1      0.0000
    35 OH      -0.5657   1.4865  -0.2444   O.3       1 1      0.0000
    36 OH1     -1.0693   1.7499   0.5649   H         1 1      0.0000
    37 H22      0.7552   0.7300   1.1577   H         1 1      0.0000
    38 C16      5.2441   2.0775   1.9049   C.3       1 1      0.0000
    39 H16C     5.8043   1.2625   2.3585   H         1 1      0.0000
    40 H16A     5.9381   2.8876   1.6904   H         1 1      0.0000
    41 H16B     4.5189   2.4363   2.6323   H         1 1      0.0000
@<TRIPOS>BOND
     1     1     2   ar
     2     1     6   ar
     3     1    29    1
     4     2     3   ar
     5     2     7    1
     6     3     4   ar
     7     3    30    1
     8     4     5   ar
     9     4     8    1
    10     5     6   ar
    11     5     9    1
    12     6    10    1
    13     8    11    1
    14     8    12    1
    15     8    28    1
    16    11    13    1
    17    11    26    1
    18    11    27    1
    19    13    14    1
    20    14    15    1
    21    14    16    1
    22    14    31    1
    23    16    17    1
    24    16    20    2
    25    17    18    1
    26    17    19    1
    27    17    32    1
    28    20    21    1
    29    20    22    1
    30    22    23    1
    31    22    24    1
    32    22    25    1
    33    32    33    1
    34    32    34    1
    35    13    35    1
    36    35    36    1
    37    13    37    1
    38    32    38    1
    39    38    39    1
    40    38    40    1
    41    38    41    1
@<TRIPOS>SUBSTRUCTURE
     1 1           1 GROUP             0 ****  ****    0  
@<TRIPOS>MOLECULE
Molecule Name_00001_00417
    41    41     1     0     0
SMALL
NO_CHARGES
****
Generated from the CSD

@<TRIPOS>ATOM
     1 C5      -4.7925  -0.0622   0.8636   C.ar      1 1      0.0000
     2 C4      -3.9193   0.8505   1.4148   C.ar      1 1      0.0000
     3 C3      -2.7564   1.1927   0.7451   C.ar      1 1      0.0000
     4 C8      -2.4521   0.6278  -0.4838   C.ar      1 1      0.0000
     5 C7      -3.3389  -0.2897  -1.0258   C.ar      1 1      0.0000
     6 C6      -4.5021  -0.6326  -0.3569   C.ar      1 1      0.0000
     7 H4      -4.1434   1.3020   2.3757   H         1 1      0.0000
     8 C9      -1.1828   0.9987  -1.2120   C.3       1 1      0.0000
     9 H7      -3.1189  -0.7448  -1.9859   H         1 1      0.0000
    10 H6      -5.1863  -1.3519  -0.7948   H         1 1      0.0000
    11 C10      0.0780   0.7440  -0.3881   C.3       1 1      0.0000
    12 H9A     -1.1241   0.4203  -2.1423   H         1 1      0.0000
    13 C11      0.4404  -0.7187  -0.1882   C.3       1 1      0.0000
    14 C12      1.6671  -0.8840   0.7021   C.3       1 1      0.0000
    15 H12A     1.7813  -1.9437   0.9620   H         1 1      0.0000
    16 C13      2.9282  -0.4022   0.0518   C.2       1 1      0.0000
    17 C14      3.2765   1.0477   0.2071   C.3       1 1      0.0000
    18 H14B     2.3522   1.6375   0.1728   H         1 1      0.0000
    19 H14A     3.9010   1.3617  -0.6381   H         1 1      0.0000
    20 N        3.7042  -1.2338  -0.6144   N.pl3     1 1      0.0000
    21 HN       3.4395  -2.2185  -0.5922   H         1 1      0.0000
    22 C        4.9682  -0.9144  -1.2619   C.3       1 1      0.0000
    23 H1A      5.6591  -1.7521  -1.1934   H         1 1      0.0000
    24 H1C      4.8151  -0.6869  -2.3148   H         1 1      0.0000
    25 H1B      5.4352  -0.0507  -0.7935   H         1 1      0.0000
    26 H10A     0.9201   1.2440  -0.8823   H         1 1      0.0000
    27 H10B    -0.0540   1.2056   0.5983   H         1 1      0.0000
    28 H9B     -1.2244   2.0612  -1.4816   H         1 1      0.0000
    29 H5      -5.7038  -0.3304   1.3878   H         1 1      0.0000
    30 H3      -2.0751   1.9119   1.1877   H         1 1      0.0000
    31 H12B     1.5105  -0.3269   1.6341   H         1 1      0.0000
    32 C15      4.0057   1.3581   1.5012   C.3       1 1      0.0000
    33 H15A     4.9307   0.7698   1.5430   H         1 1      0.0000
    34 H15C     3.3786   1.0558   2.3491   H         1 1      0.0000
    35 OH      -0.6681  -1.3952   0.4113   O.3       1 1      0.0000
    36 OH1     -1.2911  -1.6982  -0.2945   H         1 1      0.0000
    37 H22      0.6489  -1.1722  -1.1696   H         1 1      0.0000
    38 C16      4.3450   2.8248   1.6334   C.3       1 1      0.0000
    39 H16C     3.4427   3.4324   1.6171   H         1 1      0.0000
    40 H16A     4.8664   3.0173   2.5688   H         1 1      0.0000
    41 H16B     4.9859   3.1476   0.8156   H         1 1      0.0000
@<TRIPOS>BOND
     1     1     2   ar
     2     1     6   ar
     3     1    29    1
     4     2     3   ar
     5     2     7    1
     6     3     4   ar
     7     3    30    1
     8     4     5   ar
     9     4     8    1
    10     5     6   ar
    11     5     9    1
    12     6    10    1
    13     8    11    1
    14     8    12    1
    15     8    28    1
    16    11    13    1
    17    11    26    1
    18    11    27    1
    19    13    14    1
    20    14    15    1
    21    14    16    1
    22    14    31    1
    23    16    17    1
    24    16    20    2
    25    17    18    1
    26    17    19    1
    27    17    32    1
    28    20    21    1
    29    20    22    1
    30    22    23    1
    31    22    24    1
    32    22    25    1
    33    32    33    1
    34    32    34    1
    35    13    35    1
    36    35    36    1
    37    13    37    1
    38    32    38    1
    39    38    39    1
    40    38    40    1
    41    38    41    1
@<TRIPOS>SUBSTRUCTURE
     1 1           1 GROUP             0 ****  ****    0  
@<TRIPOS>MOLECULE
Molecule Name_00001_00418
    41    41     1     0     0
SMALL
NO_CHARGES
****
Generated from the CSD

@<TRIPOS>ATOM
     1 C5      -4.3720   1.6807   0.8080   C.ar      1 1      0.0000
     2 C4      -4.5622   1.0202  -0.3866   C.ar      1 1      0.0000
     3 C3      -3.5564   0.2245  -0.9092   C.ar      1 1      0.0000
     4 C8      -2.3486   0.0783  -0.2444   C.ar      1 1      0.0000
     5 C7      -2.1707   0.7495   0.9556   C.ar      1 1      0.0000
     6 C6      -3.1759   1.5454   1.4791   C.ar      1 1      0.0000
     7 H4      -5.5020   1.1239  -0.9188   H         1 1      0.0000
     8 C9      -1.2513  -0.7865  -0.8161   C.3       1 1      0.0000
     9 H7      -1.2324   0.6499   1.4913   H         1 1      0.0000
    10 H6      -3.0214   2.0637   2.4198   H         1 1      0.0000
    11 C10      0.0006  -0.8235   0.0581   C.3       1 1      0.0000
    12 H9A     -1.6310  -1.8084  -0.9390   H         1 1      0.0000
    13 C11      1.1389  -1.6809  -0.4711   C.3       1 1      0.0000
    14 C12      2.3391  -1.6763   0.4694   C.3       1 1      0.0000
    15 H12A     2.9880  -2.5268   0.2267   H         1 1      0.0000
    16 C13      3.1395  -0.4122   0.3862   C.2       1 1      0.0000
    17 C14      2.5766   0.8081   1.0508   C.3       1 1      0.0000
    18 H14B     3.3120   1.1878   1.7708   H         1 1      0.0000
    19 H14A     1.6763   0.5306   1.6124   H         1 1      0.0000
    20 N        4.3019  -0.3892  -0.2349   N.pl3     1 1      0.0000
    21 HN       4.6513  -1.2838  -0.5781   H         1 1      0.0000
    22 C        5.1979   0.7510  -0.3617   C.3       1 1      0.0000
    23 H1A      6.2370   0.4291  -0.3402   H         1 1      0.0000
    24 H1C      5.0249   1.2745  -1.2996   H         1 1      0.0000
    25 H1B      5.0444   1.4559   0.4526   H         1 1      0.0000
    26 H10A     0.3684   0.2031   0.1778   H         1 1      0.0000
    27 H10B    -0.2810  -1.1966   1.0505   H         1 1      0.0000
    28 H9B     -0.9817  -0.4088  -1.8100   H         1 1      0.0000
    29 H5      -5.1598   2.3039   1.2179   H         1 1      0.0000
    30 H3      -3.7156  -0.2909  -1.8507   H         1 1      0.0000
    31 H12B     1.9867  -1.8087   1.4998   H         1 1      0.0000
    32 C15      2.2280   1.9190   0.0775   C.3       1 1      0.0000
    33 H15A     1.5070   1.5403  -0.6574   H         1 1      0.0000
    34 H15C     3.1328   2.2188  -0.4655   H         1 1      0.0000
    35 OH       0.6743  -3.0242  -0.6310   O.3       1 1      0.0000
    36 OH1     -0.0667  -3.0417  -1.2858   H         1 1      0.0000
    37 H22      1.4533  -1.2913  -1.4517   H         1 1      0.0000
    38 C16      1.6416   3.1277   0.7695   C.3       1 1      0.0000
    39 H16C     2.3452   3.5385   1.4905   H         1 1      0.0000
    40 H16A     1.4017   3.9063   0.0485   H         1 1      0.0000
    41 H16B     0.7288   2.8636   1.2994   H         1 1      0.0000
@<TRIPOS>BOND
     1     1     2   ar
     2     1     6   ar
     3     1    29    1
     4     2     3   ar
     5     2     7    1
     6     3     4   ar
     7     3    30    1
     8     4     5   ar
     9     4     8    1
    10     5     6   ar
    11     5     9    1
    12     6    10    1
    13     8    11    1
    14     8    12    1
    15     8    28    1
    16    11    13    1
    17    11    26    1
    18    11    27    1
    19    13    14    1
    20    14    15    1
    21    14    16    1
    22    14    31    1
    23    16    17    1
    24    16    20    2
    25    17    18    1
    26    17    19    1
    27    17    32    1
    28    20    21    1
    29    20    22    1
    30    22    23    1
    31    22    24    1
    32    22    25    1
    33    32    33    1
    34    32    34    1
    35    13    35    1
    36    35    36    1
    37    13    37    1
    38    32    38    1
    39    38    39    1
    40    38    40    1
    41    38    41    1
@<TRIPOS>SUBSTRUCTURE
     1 1           1 GROUP             0 ****  ****    0  
@<TRIPOS>MOLECULE
Molecule Name_00001_00419
    41    41     1     0     0
SMALL
NO_CHARGES
****
Generated from the CSD

@<TRIPOS>ATOM
     1 C5      -4.3068   1.4079   1.1292   C.ar      1 1      0.0000
     2 C4      -4.3309   0.9714  -0.1778   C.ar      1 1      0.0000
     3 C3      -3.2706   0.2401  -0.6866   C.ar      1 1      0.0000
     4 C8      -2.1736  -0.0647   0.1045   C.ar      1 1      0.0000
     5 C7      -2.1623   0.3818   1.4169   C.ar      1 1      0.0000
     6 C6      -3.2221   1.1132   1.9267   C.ar      1 1      0.0000
     7 H4      -5.1825   1.2013  -0.8096   H         1 1      0.0000
     8 C9      -1.0166  -0.8591  -0.4515   C.3       1 1      0.0000
     9 H7      -1.3126   0.1555   2.0526   H         1 1      0.0000
    10 H6      -3.1984   1.4550   2.9562   H         1 1      0.0000
    11 C10      0.0318   0.0109  -1.1423   C.3       1 1      0.0000
    12 H9A     -0.5387  -1.4121   0.3666   H         1 1      0.0000
    13 C11      1.2178  -0.7395  -1.7265   C.3       1 1      0.0000
    14 C12      2.0075  -1.4795  -0.6524   C.3       1 1      0.0000
    15 H12A     2.6388  -2.2385  -1.1306   H         1 1      0.0000
    16 C13      2.8728  -0.5695   0.1654   C.2       1 1      0.0000
    17 C14      2.1984   0.2831   1.1979   C.3       1 1      0.0000
    18 H14B     2.6529   0.0782   2.1751   H         1 1      0.0000
    19 H14A     1.1394   0.0046   1.2605   H         1 1      0.0000
    20 N        4.1785  -0.5404  -0.0121   N.pl3     1 1      0.0000
    21 HN       4.5627  -1.2183  -0.6701   H         1 1      0.0000
    22 C        5.1396   0.2622   0.7302   C.3       1 1      0.0000
    23 H1A      6.0774  -0.2754   0.8536   H         1 1      0.0000
    24 H1C      5.3492   1.1933   0.2077   H         1 1      0.0000
    25 H1B      4.7570   0.5076   1.7186   H         1 1      0.0000
    26 H10A    -0.4588   0.5652  -1.9518   H         1 1      0.0000
    27 H10B     0.4085   0.7415  -0.4158   H         1 1      0.0000
    28 H9B     -1.4014  -1.5930  -1.1704   H         1 1      0.0000
    29 H5      -5.1374   1.9807   1.5283   H         1 1      0.0000
    30 H3      -3.2988  -0.0985  -1.7170   H         1 1      0.0000
    31 H12B     1.3068  -1.9991   0.0128   H         1 1      0.0000
    32 C15      2.3015   1.7702   0.9139   C.3       1 1      0.0000
    33 H15A     1.8666   1.9793  -0.0713   H         1 1      0.0000
    34 H15C     3.3596   2.0576   0.8801   H         1 1      0.0000
    35 OH       0.7426  -1.6822  -2.6915   O.3       1 1      0.0000
    36 OH1      0.2495  -1.2055  -3.4041   H         1 1      0.0000
    37 H22      1.8844  -0.0199  -2.2265   H         1 1      0.0000
    38 C16      1.5936   2.6056   1.9554   C.3       1 1      0.0000
    39 H16C     2.0197   2.4346   2.9418   H         1 1      0.0000
    40 H16A     1.6840   3.6654   1.7262   H         1 1      0.0000
    41 H16B     0.5353   2.3566   1.9955   H         1 1      0.0000
@<TRIPOS>BOND
     1     1     2   ar
     2     1     6   ar
     3     1    29    1
     4     2     3   ar
     5     2     7    1
     6     3     4   ar
     7     3    30    1
     8     4     5   ar
     9     4     8    1
    10     5     6   ar
    11     5     9    1
    12     6    10    1
    13     8    11    1
    14     8    12    1
    15     8    28    1
    16    11    13    1
    17    11    26    1
    18    11    27    1
    19    13    14    1
    20    14    15    1
    21    14    16    1
    22    14    31    1
    23    16    17    1
    24    16    20    2
    25    17    18    1
    26    17    19    1
    27    17    32    1
    28    20    21    1
    29    20    22    1
    30    22    23    1
    31    22    24    1
    32    22    25    1
    33    32    33    1
    34    32    34    1
    35    13    35    1
    36    35    36    1
    37    13    37    1
    38    32    38    1
    39    38    39    1
    40    38    40    1
    41    38    41    1
@<TRIPOS>SUBSTRUCTURE
     1 1           1 GROUP             0 ****  ****    0  
@<TRIPOS>MOLECULE
Molecule Name_00001_00420
    41    41     1     0     0
SMALL
NO_CHARGES
****
Generated from the CSD

@<TRIPOS>ATOM
     1 C5      -5.5682   0.4422  -0.2569   C.ar      1 1      0.0000
     2 C4      -5.0557  -0.8281  -0.1054   C.ar      1 1      0.0000
     3 C3      -3.7254  -1.0054   0.2363   C.ar      1 1      0.0000
     4 C8      -2.8910   0.0845   0.4316   C.ar      1 1      0.0000
     5 C7      -3.4197   1.3565   0.2746   C.ar      1 1      0.0000
     6 C6      -4.7499   1.5348  -0.0670   C.ar      1 1      0.0000
     7 H4      -5.6960  -1.6914  -0.2542   H         1 1      0.0000
     8 C9      -1.4402  -0.1092   0.8008   C.3       1 1      0.0000
     9 H7      -2.7834   2.2230   0.4213   H         1 1      0.0000
    10 H6      -5.1487   2.5369  -0.1855   H         1 1      0.0000
    11 C10     -0.5293  -0.2784  -0.4136   C.3       1 1      0.0000
    12 H9A     -1.1021   0.7573   1.3825   H         1 1      0.0000
    13 C11      0.9447  -0.4771  -0.0990   C.3       1 1      0.0000
    14 C12      1.8331   0.4355  -0.9372   C.3       1 1      0.0000
    15 H12A     1.6212   1.4798  -0.6767   H         1 1      0.0000
    16 C13      3.2943   0.1694  -0.7379   C.2       1 1      0.0000
    17 C14      4.0838   1.1850   0.0321   C.3       1 1      0.0000
    18 H14B     3.7395   2.1873  -0.2514   H         1 1      0.0000
    19 H14A     5.1417   1.1072  -0.2469   H         1 1      0.0000
    20 N        3.8509  -0.9280  -1.2104   N.pl3     1 1      0.0000
    21 HN       3.2230  -1.6067  -1.6408   H         1 1      0.0000
    22 C        5.2416  -1.3315  -1.0616   C.3       1 1      0.0000
    23 H1A      5.3216  -2.4126  -0.9687   H         1 1      0.0000
    24 H1C      5.8272  -1.0214  -1.9245   H         1 1      0.0000
    25 H1B      5.6819  -0.8816  -0.1743   H         1 1      0.0000
    26 H10A    -0.8792  -1.1440  -0.9896   H         1 1      0.0000
    27 H10B    -0.6306   0.6102  -1.0488   H         1 1      0.0000
    28 H9B     -1.3508  -0.9960   1.4403   H         1 1      0.0000
    29 H5      -6.6105   0.5815  -0.5243   H         1 1      0.0000
    30 H3      -3.3313  -2.0096   0.3526   H         1 1      0.0000
    31 H12B     1.5867   0.2994  -1.9974   H         1 1      0.0000
    32 C15      3.9579   1.0333   1.5367   C.3       1 1      0.0000
    33 H15A     4.2574   0.0173   1.8221   H         1 1      0.0000
    34 H15C     2.9079   1.1658   1.8252   H         1 1      0.0000
    35 OH       1.1659  -0.2021   1.2871   O.3       1 1      0.0000
    36 OH1      0.7916  -0.9366   1.8335   H         1 1      0.0000
    37 H22      1.2155  -1.5244  -0.3042   H         1 1      0.0000
    38 C16      4.8086   2.0303   2.2891   C.3       1 1      0.0000
    39 H16C     4.5184   3.0492   2.0415   H         1 1      0.0000
    40 H16A     4.6986   1.8980   3.3634   H         1 1      0.0000
    41 H16B     5.8601   1.9069   2.0383   H         1 1      0.0000
@<TRIPOS>BOND
     1     1     2   ar
     2     1     6   ar
     3     1    29    1
     4     2     3   ar
     5     2     7    1
     6     3     4   ar
     7     3    30    1
     8     4     5   ar
     9     4     8    1
    10     5     6   ar
    11     5     9    1
    12     6    10    1
    13     8    11    1
    14     8    12    1
    15     8    28    1
    16    11    13    1
    17    11    26    1
    18    11    27    1
    19    13    14    1
    20    14    15    1
    21    14    16    1
    22    14    31    1
    23    16    17    1
    24    16    20    2
    25    17    18    1
    26    17    19    1
    27    17    32    1
    28    20    21    1
    29    20    22    1
    30    22    23    1
    31    22    24    1
    32    22    25    1
    33    32    33    1
    34    32    34    1
    35    13    35    1
    36    35    36    1
    37    13    37    1
    38    32    38    1
    39    38    39    1
    40    38    40    1
    41    38    41    1
@<TRIPOS>SUBSTRUCTURE
     1 1           1 GROUP             0 ****  ****    0  
@<TRIPOS>MOLECULE
Molecule Name_00001_00421
    41    41     1     0     0
SMALL
NO_CHARGES
****
Generated from the CSD

@<TRIPOS>ATOM
     1 C5      -4.5083  -1.2576  -0.5964   C.ar      1 1      0.0000
     2 C4      -4.7266  -0.4954   0.5310   C.ar      1 1      0.0000
     3 C3      -3.8422   0.5152   0.8693   C.ar      1 1      0.0000
     4 C8      -2.7294   0.7772   0.0850   C.ar      1 1      0.0000
     5 C7      -2.5217   0.0019  -1.0454   C.ar      1 1      0.0000
     6 C6      -3.4055  -1.0090  -1.3846   C.ar      1 1      0.0000
     7 H4      -5.5933  -0.6876   1.1548   H         1 1      0.0000
     8 C9      -1.7640   1.8768   0.4559   C.3       1 1      0.0000
     9 H7      -1.6560   0.1894  -1.6721   H         1 1      0.0000
    10 H6      -3.2292  -1.6066  -2.2729   H         1 1      0.0000
    11 C10     -0.6721   1.4168   1.4199   C.3       1 1      0.0000
    12 H9A     -1.2944   2.2615  -0.4578   H         1 1      0.0000
    13 C11      0.3455   0.4495   0.8370   C.3       1 1      0.0000
    14 C12      1.6592   1.1438   0.4952   C.3       1 1      0.0000
    15 H12A     2.1133   1.5260   1.4178   H         1 1      0.0000
    16 C13      2.6359   0.2376  -0.1906   C.2       1 1      0.0000
    17 C14      3.9712   0.8113  -0.5589   C.3       1 1      0.0000
    18 H14B     3.8254   1.8345  -0.9268   H         1 1      0.0000
    19 H14A     4.4033   0.2235  -1.3779   H         1 1      0.0000
    20 N        2.3293  -1.0199  -0.4400   N.pl3     1 1      0.0000
    21 HN       1.4369  -1.3511  -0.0738   H         1 1      0.0000
    22 C        3.1874  -2.0174  -1.0626   C.3       1 1      0.0000
    23 H1A      3.0066  -3.0019  -0.6362   H         1 1      0.0000
    24 H1C      3.0004  -2.0724  -2.1330   H         1 1      0.0000
    25 H1B      4.2367  -1.7714  -0.9147   H         1 1      0.0000
    26 H10A    -0.1373   2.3028   1.7838   H         1 1      0.0000
    27 H10B    -1.1513   0.9368   2.2821   H         1 1      0.0000
    28 H9B     -2.3227   2.7009   0.9164   H         1 1      0.0000
    29 H5      -5.2011  -2.0493  -0.8619   H         1 1      0.0000
    30 H3      -4.0226   1.1093   1.7591   H         1 1      0.0000
    31 H12B     1.4514   2.0025  -0.1551   H         1 1      0.0000
    32 C15      4.9538   0.8438   0.5970   C.3       1 1      0.0000
    33 H15A     5.1028  -0.1766   0.9713   H         1 1      0.0000
    34 H15C     4.5294   1.4408   1.4135   H         1 1      0.0000
    35 OH       0.5980  -0.5890   1.7876   O.3       1 1      0.0000
    36 OH1     -0.2468  -1.0592   1.9955   H         1 1      0.0000
    37 H22     -0.0705   0.0031  -0.0794   H         1 1      0.0000
    38 C16      6.2907   1.4259   0.2000   C.3       1 1      0.0000
    39 H16C     6.1761   2.4478  -0.1557   H         1 1      0.0000
    40 H16A     6.9736   1.4364   1.0468   H         1 1      0.0000
    41 H16B     6.7459   0.8394  -0.5953   H         1 1      0.0000
@<TRIPOS>BOND
     1     1     2   ar
     2     1     6   ar
     3     1    29    1
     4     2     3   ar
     5     2     7    1
     6     3     4   ar
     7     3    30    1
     8     4     5   ar
     9     4     8    1
    10     5     6   ar
    11     5     9    1
    12     6    10    1
    13     8    11    1
    14     8    12    1
    15     8    28    1
    16    11    13    1
    17    11    26    1
    18    11    27    1
    19    13    14    1
    20    14    15    1
    21    14    16    1
    22    14    31    1
    23    16    17    1
    24    16    20    2
    25    17    18    1
    26    17    19    1
    27    17    32    1
    28    20    21    1
    29    20    22    1
    30    22    23    1
    31    22    24    1
    32    22    25    1
    33    32    33    1
    34    32    34    1
    35    13    35    1
    36    35    36    1
    37    13    37    1
    38    32    38    1
    39    38    39    1
    40    38    40    1
    41    38    41    1
@<TRIPOS>SUBSTRUCTURE
     1 1           1 GROUP             0 ****  ****    0  
@<TRIPOS>MOLECULE
Molecule Name_00001_00422
    41    41     1     0     0
SMALL
NO_CHARGES
****
Generated from the CSD

@<TRIPOS>ATOM
     1 C5      -4.3619  -0.7162   1.2086   C.ar      1 1      0.0000
     2 C4      -4.1729   0.6303   1.4335   C.ar      1 1      0.0000
     3 C3      -3.0688   1.2760   0.9025   C.ar      1 1      0.0000
     4 C8      -2.1404   0.5844   0.1396   C.ar      1 1      0.0000
     5 C7      -2.3425  -0.7699  -0.0775   C.ar      1 1      0.0000
     6 C6      -3.4463  -1.4165   0.4531   C.ar      1 1      0.0000
     7 H4      -4.8908   1.1858   2.0280   H         1 1      0.0000
     8 C9      -0.9353   1.2879  -0.4363   C.3       1 1      0.0000
     9 H7      -1.6271  -1.3301  -0.6704   H         1 1      0.0000
    10 H6      -3.5907  -2.4767   0.2736   H         1 1      0.0000
    11 C10     -0.0299   0.3618  -1.2460   C.3       1 1      0.0000
    12 H9A     -1.2759   2.1074  -1.0812   H         1 1      0.0000
    13 C11      1.2006   1.0193  -1.8498   C.3       1 1      0.0000
    14 C12      2.2392   1.3650  -0.7884   C.3       1 1      0.0000
    15 H12A     1.7717   1.9941  -0.0208   H         1 1      0.0000
    16 C13      2.8288   0.1529  -0.1336   C.2       1 1      0.0000
    17 C14      3.6839   0.3684   1.0789   C.3       1 1      0.0000
    18 H14B     4.2651   1.2885   0.9408   H         1 1      0.0000
    19 H14A     4.3950  -0.4616   1.1714   H         1 1      0.0000
    20 N        2.5840  -1.0541  -0.6033   N.pl3     1 1      0.0000
    21 HN       1.9191  -1.1153  -1.3743   H         1 1      0.0000
    22 C        3.0570  -2.3150  -0.0507   C.3       1 1      0.0000
    23 H1A      2.3116  -3.0968  -0.1805   H         1 1      0.0000
    24 H1C      3.9718  -2.6337  -0.5461   H         1 1      0.0000
    25 H1B      3.2644  -2.2175   1.0128   H         1 1      0.0000
    26 H10A     0.3006  -0.4553  -0.5929   H         1 1      0.0000
    27 H10B    -0.6216  -0.0770  -2.0588   H         1 1      0.0000
    28 H9B     -0.3543   1.7279   0.3836   H         1 1      0.0000
    29 H5      -5.2269  -1.2223   1.6242   H         1 1      0.0000
    30 H3      -2.9286   2.3362   1.0857   H         1 1      0.0000
    31 H12B     3.0447   1.9477  -1.2523   H         1 1      0.0000
    32 C15      2.8884   0.4823   2.3661   C.3       1 1      0.0000
    33 H15A     3.5806   0.4940   3.2170   H         1 1      0.0000
    34 H15C     2.2449  -0.4000   2.4707   H         1 1      0.0000
    35 OH       1.7843   0.1272  -2.8034   O.3       1 1      0.0000
    36 OH1      1.1228  -0.0821  -3.5080   H         1 1      0.0000
    37 H22      0.8954   1.9438  -2.3639   H         1 1      0.0000
    38 C16      2.0331   1.7275   2.4061   C.3       1 1      0.0000
    39 H16C     1.1307   1.5948   1.8130   H         1 1      0.0000
    40 H16A     1.7368   1.9593   3.4270   H         1 1      0.0000
    41 H16B     2.5771   2.5820   2.0088   H         1 1      0.0000
@<TRIPOS>BOND
     1     1     2   ar
     2     1     6   ar
     3     1    29    1
     4     2     3   ar
     5     2     7    1
     6     3     4   ar
     7     3    30    1
     8     4     5   ar
     9     4     8    1
    10     5     6   ar
    11     5     9    1
    12     6    10    1
    13     8    11    1
    14     8    12    1
    15     8    28    1
    16    11    13    1
    17    11    26    1
    18    11    27    1
    19    13    14    1
    20    14    15    1
    21    14    16    1
    22    14    31    1
    23    16    17    1
    24    16    20    2
    25    17    18    1
    26    17    19    1
    27    17    32    1
    28    20    21    1
    29    20    22    1
    30    22    23    1
    31    22    24    1
    32    22    25    1
    33    32    33    1
    34    32    34    1
    35    13    35    1
    36    35    36    1
    37    13    37    1
    38    32    38    1
    39    38    39    1
    40    38    40    1
    41    38    41    1
@<TRIPOS>SUBSTRUCTURE
     1 1           1 GROUP             0 ****  ****    0  
@<TRIPOS>MOLECULE
Molecule Name_00001_00423
    41    41     1     0     0
SMALL
NO_CHARGES
****
Generated from the CSD

@<TRIPOS>ATOM
     1 C5      -4.2921  -0.4005   1.5347   C.ar      1 1      0.0000
     2 C4      -4.1914   0.9442   1.2499   C.ar      1 1      0.0000
     3 C3      -3.1374   1.4162   0.4856   C.ar      1 1      0.0000
     4 C8      -2.1715   0.5505  -0.0041   C.ar      1 1      0.0000
     5 C7      -2.2847  -0.7993   0.2913   C.ar      1 1      0.0000
     6 C6      -3.3384  -1.2724   1.0555   C.ar      1 1      0.0000
     7 H4      -4.9396   1.6345   1.6252   H         1 1      0.0000
     8 C9      -1.0210   1.0659  -0.8344   C.3       1 1      0.0000
     9 H7      -1.5387  -1.4937  -0.0809   H         1 1      0.0000
    10 H6      -3.4132  -2.3318   1.2775   H         1 1      0.0000
    11 C10     -0.0628  -0.0362  -1.2819   C.3       1 1      0.0000
    12 H9A     -1.4210   1.5728  -1.7213   H         1 1      0.0000
    13 C11      1.1159   0.4278  -2.1224   C.3       1 1      0.0000
    14 C12      2.1374   1.1981  -1.2930   C.3       1 1      0.0000
    15 H12A     1.6357   2.0372  -0.7954   H         1 1      0.0000
    16 C13      2.8082   0.3471  -0.2579   C.2       1 1      0.0000
    17 C14      3.6491   1.0424   0.7704   C.3       1 1      0.0000
    18 H14B     4.2091   1.8486   0.2807   H         1 1      0.0000
    19 H14A     4.3791   0.3333   1.1794   H         1 1      0.0000
    20 N        2.6442  -0.9607  -0.2499   N.pl3     1 1      0.0000
    21 HN       1.9836  -1.3398  -0.9281   H         1 1      0.0000
    22 C        3.2019  -1.9014   0.7109   C.3       1 1      0.0000
    23 H1A      2.5009  -2.7090   0.9113   H         1 1      0.0000
    24 H1C      4.1230  -2.3389   0.3316   H         1 1      0.0000
    25 H1B      3.4257  -1.4052   1.6527   H         1 1      0.0000
    26 H10A     0.3270  -0.5386  -0.3880   H         1 1      0.0000
    27 H10B    -0.6309  -0.7749  -1.8607   H         1 1      0.0000
    28 H9B     -0.4636   1.8076  -0.2491   H         1 1      0.0000
    29 H5      -5.1178  -0.7708   2.1333   H         1 1      0.0000
    30 H3      -3.0666   2.4767   0.2673   H         1 1      0.0000
    31 H12B     2.9005   1.6147  -1.9619   H         1 1      0.0000
    32 C15      2.8417   1.6325   1.9118   C.3       1 1      0.0000
    33 H15A     2.0881   2.3170   1.5031   H         1 1      0.0000
    34 H15C     3.5075   2.2163   2.5594   H         1 1      0.0000
    35 OH       1.7505  -0.7142  -2.7046   O.3       1 1      0.0000
    36 OH1      1.0989  -1.2052  -3.2635   H         1 1      0.0000
    37 H22      0.7452   1.0811  -2.9273   H         1 1      0.0000
    38 C16      2.1515   0.5716   2.7375   C.3       1 1      0.0000
    39 H16C     2.8780  -0.1104   3.1742   H         1 1      0.0000
    40 H16A     1.5813   1.0231   3.5467   H         1 1      0.0000
    41 H16B     1.4668  -0.0100   2.1238   H         1 1      0.0000
@<TRIPOS>BOND
     1     1     2   ar
     2     1     6   ar
     3     1    29    1
     4     2     3   ar
     5     2     7    1
     6     3     4   ar
     7     3    30    1
     8     4     5   ar
     9     4     8    1
    10     5     6   ar
    11     5     9    1
    12     6    10    1
    13     8    11    1
    14     8    12    1
    15     8    28    1
    16    11    13    1
    17    11    26    1
    18    11    27    1
    19    13    14    1
    20    14    15    1
    21    14    16    1
    22    14    31    1
    23    16    17    1
    24    16    20    2
    25    17    18    1
    26    17    19    1
    27    17    32    1
    28    20    21    1
    29    20    22    1
    30    22    23    1
    31    22    24    1
    32    22    25    1
    33    32    33    1
    34    32    34    1
    35    13    35    1
    36    35    36    1
    37    13    37    1
    38    32    38    1
    39    38    39    1
    40    38    40    1
    41    38    41    1
@<TRIPOS>SUBSTRUCTURE
     1 1           1 GROUP             0 ****  ****    0  
@<TRIPOS>MOLECULE
Molecule Name_00001_00424
    41    41     1     0     0
SMALL
NO_CHARGES
****
Generated from the CSD

@<TRIPOS>ATOM
     1 C5      -4.7675  -1.0219   0.7563   C.ar      1 1      0.0000
     2 C4      -4.7077   0.3110   1.1014   C.ar      1 1      0.0000
     3 C3      -3.5985   1.0681   0.7630   C.ar      1 1      0.0000
     4 C8      -2.5359   0.5028   0.0749   C.ar      1 1      0.0000
     5 C7      -2.6091  -0.8393  -0.2647   C.ar      1 1      0.0000
     6 C6      -3.7179  -1.5972   0.0732   C.ar      1 1      0.0000
     7 H4      -5.5315   0.7683   1.6395   H         1 1      0.0000
     8 C9      -1.3256   1.3276  -0.2909   C.3       1 1      0.0000
     9 H7      -1.7876  -1.3017  -0.8020   H         1 1      0.0000
    10 H6      -3.7603  -2.6463  -0.2003   H         1 1      0.0000
    11 C10     -0.2626   0.5314  -1.0454   C.3       1 1      0.0000
    12 H9A     -1.6457   2.1734  -0.9118   H         1 1      0.0000
    13 C11      0.9796   1.3143  -1.4390   C.3       1 1      0.0000
    14 C12      1.8528   1.6396  -0.2322   C.3       1 1      0.0000
    15 H12A     1.2509   2.1764   0.5115   H         1 1      0.0000
    16 C13      2.4427   0.4189   0.4061   C.2       1 1      0.0000
    17 C14      3.1175   0.5900   1.7339   C.3       1 1      0.0000
    18 H14B     3.1022  -0.3709   2.2630   H         1 1      0.0000
    19 H14A     2.5502   1.3092   2.3373   H         1 1      0.0000
    20 N        2.3507  -0.7592  -0.1779   N.pl3     1 1      0.0000
    21 HN       1.7961  -0.8003  -1.0328   H         1 1      0.0000
    22 C        2.8421  -2.0276   0.3404   C.3       1 1      0.0000
    23 H1A      2.4557  -2.8592  -0.2454   H         1 1      0.0000
    24 H1C      3.9289  -2.0637   0.3039   H         1 1      0.0000
    25 H1B      2.5334  -2.1687   1.3740   H         1 1      0.0000
    26 H10A     0.0462  -0.3134  -0.4175   H         1 1      0.0000
    27 H10B    -0.7175   0.1234  -1.9565   H         1 1      0.0000
    28 H9B     -0.8824   1.7354   0.6259   H         1 1      0.0000
    29 H5      -5.6365  -1.6152   1.0210   H         1 1      0.0000
    30 H3      -3.5607   2.1165   1.0398   H         1 1      0.0000
    31 H12B     2.6653   2.3058  -0.5476   H         1 1      0.0000
    32 C15      4.5550   1.0637   1.6240   C.3       1 1      0.0000
    33 H15A     4.9431   1.2714   2.6288   H         1 1      0.0000
    34 H15C     4.5824   2.0010   1.0546   H         1 1      0.0000
    35 OH       1.7398   0.5424  -2.3728   O.3       1 1      0.0000
    36 OH1      1.1863   0.3483  -3.1690   H         1 1      0.0000
    37 H22      0.6710   2.2557  -1.9195   H         1 1      0.0000
    38 C16      5.4462   0.0470   0.9490   C.3       1 1      0.0000
    39 H16C     5.0968  -0.1627  -0.0599   H         1 1      0.0000
    40 H16A     6.4687   0.4130   0.8843   H         1 1      0.0000
    41 H16B     5.4553  -0.8878   1.5056   H         1 1      0.0000
@<TRIPOS>BOND
     1     1     2   ar
     2     1     6   ar
     3     1    29    1
     4     2     3   ar
     5     2     7    1
     6     3     4   ar
     7     3    30    1
     8     4     5   ar
     9     4     8    1
    10     5     6   ar
    11     5     9    1
    12     6    10    1
    13     8    11    1
    14     8    12    1
    15     8    28    1
    16    11    13    1
    17    11    26    1
    18    11    27    1
    19    13    14    1
    20    14    15    1
    21    14    16    1
    22    14    31    1
    23    16    17    1
    24    16    20    2
    25    17    18    1
    26    17    19    1
    27    17    32    1
    28    20    21    1
    29    20    22    1
    30    22    23    1
    31    22    24    1
    32    22    25    1
    33    32    33    1
    34    32    34    1
    35    13    35    1
    36    35    36    1
    37    13    37    1
    38    32    38    1
    39    38    39    1
    40    38    40    1
    41    38    41    1
@<TRIPOS>SUBSTRUCTURE
     1 1           1 GROUP             0 ****  ****    0  
@<TRIPOS>MOLECULE
Molecule Name_00001_00425
    41    41     1     0     0
SMALL
NO_CHARGES
****
Generated from the CSD

@<TRIPOS>ATOM
     1 C5      -4.7687  -1.1120   0.3687   C.ar      1 1      0.0000
     2 C4      -4.6330  -0.0220   1.2010   C.ar      1 1      0.0000
     3 C3      -3.4937   0.7631   1.1388   C.ar      1 1      0.0000
     4 C8      -2.4767   0.4691   0.2437   C.ar      1 1      0.0000
     5 C7      -2.6262  -0.6311  -0.5866   C.ar      1 1      0.0000
     6 C6      -3.7650  -1.4168  -0.5251   C.ar      1 1      0.0000
     7 H4      -5.4203   0.2217   1.9067   H         1 1      0.0000
     8 C9      -1.2336   1.3231   0.1784   C.3       1 1      0.0000
     9 H7      -1.8413  -0.8796  -1.2933   H         1 1      0.0000
    10 H6      -3.8672  -2.2741  -1.1822   H         1 1      0.0000
    11 C10     -0.2295   0.8424  -0.8674   C.3       1 1      0.0000
    12 H9A     -1.5229   2.3557  -0.0527   H         1 1      0.0000
    13 C11      1.0427   1.6676  -0.9757   C.3       1 1      0.0000
    14 C12      1.9568   1.4637   0.2274   C.3       1 1      0.0000
    15 H12A     1.4000   1.6948   1.1439   H         1 1      0.0000
    16 C13      2.4939   0.0679   0.3213   C.2       1 1      0.0000
    17 C14      3.1994  -0.3184   1.5865   C.3       1 1      0.0000
    18 H14B     3.1367  -1.4070   1.7063   H         1 1      0.0000
    19 H14A     2.6852   0.1388   2.4407   H         1 1      0.0000
    20 N        2.3310  -0.7858  -0.6698   N.pl3     1 1      0.0000
    21 HN       1.7604  -0.4686  -1.4533   H         1 1      0.0000
    22 C        2.7651  -2.1748  -0.7015   C.3       1 1      0.0000
    23 H1A      2.2176  -2.7328  -1.4582   H         1 1      0.0000
    24 H1C      3.8261  -2.2418  -0.9328   H         1 1      0.0000
    25 H1B      2.5976  -2.6543   0.2606   H         1 1      0.0000
    26 H10A     0.0489  -0.1915  -0.6290   H         1 1      0.0000
    27 H10B    -0.7241   0.8393  -1.8465   H         1 1      0.0000
    28 H9B     -0.7504   1.3244   1.1632   H         1 1      0.0000
    29 H5      -5.6612  -1.7271   0.4170   H         1 1      0.0000
    30 H3      -3.3960   1.6188   1.7987   H         1 1      0.0000
    31 H12B     2.7970   2.1659   0.1615   H         1 1      0.0000
    32 C15      4.6601   0.0922   1.6126   C.3       1 1      0.0000
    33 H15A     5.1681  -0.3300   0.7368   H         1 1      0.0000
    34 H15C     5.1354  -0.3258   2.5086   H         1 1      0.0000
    35 OH       1.7423   1.2902  -2.1648   O.3       1 1      0.0000
    36 OH1      1.1628   1.4427  -2.9516   H         1 1      0.0000
    37 H22      0.7727   2.7329  -1.0415   H         1 1      0.0000
    38 C16      4.8364   1.5930   1.6119   C.3       1 1      0.0000
    39 H16C     4.0438   2.0747   2.1808   H         1 1      0.0000
    40 H16A     5.7896   1.8696   2.0576   H         1 1      0.0000
    41 H16B     4.8106   1.9839   0.5969   H         1 1      0.0000
@<TRIPOS>BOND
     1     1     2   ar
     2     1     6   ar
     3     1    29    1
     4     2     3   ar
     5     2     7    1
     6     3     4   ar
     7     3    30    1
     8     4     5   ar
     9     4     8    1
    10     5     6   ar
    11     5     9    1
    12     6    10    1
    13     8    11    1
    14     8    12    1
    15     8    28    1
    16    11    13    1
    17    11    26    1
    18    11    27    1
    19    13    14    1
    20    14    15    1
    21    14    16    1
    22    14    31    1
    23    16    17    1
    24    16    20    2
    25    17    18    1
    26    17    19    1
    27    17    32    1
    28    20    21    1
    29    20    22    1
    30    22    23    1
    31    22    24    1
    32    22    25    1
    33    32    33    1
    34    32    34    1
    35    13    35    1
    36    35    36    1
    37    13    37    1
    38    32    38    1
    39    38    39    1
    40    38    40    1
    41    38    41    1
@<TRIPOS>SUBSTRUCTURE
     1 1           1 GROUP             0 ****  ****    0  
@<TRIPOS>MOLECULE
Molecule Name_00001_00426
    41    41     1     0     0
SMALL
NO_CHARGES
****
Generated from the CSD

@<TRIPOS>ATOM
     1 C5      -5.6067   0.5434  -0.3332   C.ar      1 1      0.0000
     2 C4      -4.8945   0.0229  -1.3921   C.ar      1 1      0.0000
     3 C3      -3.5849  -0.3907  -1.2134   C.ar      1 1      0.0000
     4 C8      -2.9712  -0.2899   0.0257   C.ar      1 1      0.0000
     5 C7      -3.6991   0.2367   1.0816   C.ar      1 1      0.0000
     6 C6      -5.0088   0.6505   0.9038   C.ar      1 1      0.0000
     7 H4      -5.3609  -0.0631  -2.3680   H         1 1      0.0000
     8 C9      -1.5426  -0.7377   0.2193   C.3       1 1      0.0000
     9 H7      -3.2371   0.3258   2.0592   H         1 1      0.0000
    10 H6      -5.5653   1.0600   1.7404   H         1 1      0.0000
    11 C10     -0.6059   0.4004   0.6195   C.3       1 1      0.0000
    12 H9A     -1.5146  -1.5126   0.9953   H         1 1      0.0000
    13 C11      0.8471   0.0048   0.8278   C.3       1 1      0.0000
    14 C12      1.7188   0.3953  -0.3606   C.3       1 1      0.0000
    15 H12A     1.7605   1.4893  -0.4304   H         1 1      0.0000
    16 C13      3.1144  -0.1411  -0.2607   C.2       1 1      0.0000
    17 C14      4.0580   0.5551   0.6735   C.3       1 1      0.0000
    18 H14B     4.8434  -0.1505   0.9711   H         1 1      0.0000
    19 H14A     3.5163   0.8495   1.5807   H         1 1      0.0000
    20 N        3.4831  -1.1967  -0.9586   N.pl3     1 1      0.0000
    21 HN       2.7532  -1.6625  -1.4976   H         1 1      0.0000
    22 C        4.7867  -1.8442  -0.9334   C.3       1 1      0.0000
    23 H1A      4.7205  -2.8594  -1.3191   H         1 1      0.0000
    24 H1C      5.5011  -1.2958  -1.5439   H         1 1      0.0000
    25 H1B      5.1752  -1.8918   0.0816   H         1 1      0.0000
    26 H10A    -0.6456   1.1706  -0.1607   H         1 1      0.0000
    27 H10B    -0.9799   0.8458   1.5496   H         1 1      0.0000
    28 H9B     -1.1806  -1.1867  -0.7139   H         1 1      0.0000
    29 H5      -6.6328   0.8672  -0.4728   H         1 1      0.0000
    30 H3      -3.0325  -0.7986  -2.0534   H         1 1      0.0000
    31 H12B     1.2569   0.0195  -1.2819   H         1 1      0.0000
    32 C15      4.7101   1.7841   0.0677   C.3       1 1      0.0000
    33 H15A     3.9297   2.4936  -0.2342   H         1 1      0.0000
    34 H15C     5.2624   1.4911  -0.8337   H         1 1      0.0000
    35 OH       1.3414   0.6515   2.0040   O.3       1 1      0.0000
    36 OH1      0.7945   0.3833   2.7831   H         1 1      0.0000
    37 H22      0.9035  -1.0858   0.9679   H         1 1      0.0000
    38 C16      5.6556   2.4670   1.0286   C.3       1 1      0.0000
    39 H16C     6.4544   1.7920   1.3288   H         1 1      0.0000
    40 H16A     6.1074   3.3431   0.5680   H         1 1      0.0000
    41 H16B     5.1290   2.7887   1.9247   H         1 1      0.0000
@<TRIPOS>BOND
     1     1     2   ar
     2     1     6   ar
     3     1    29    1
     4     2     3   ar
     5     2     7    1
     6     3     4   ar
     7     3    30    1
     8     4     5   ar
     9     4     8    1
    10     5     6   ar
    11     5     9    1
    12     6    10    1
    13     8    11    1
    14     8    12    1
    15     8    28    1
    16    11    13    1
    17    11    26    1
    18    11    27    1
    19    13    14    1
    20    14    15    1
    21    14    16    1
    22    14    31    1
    23    16    17    1
    24    16    20    2
    25    17    18    1
    26    17    19    1
    27    17    32    1
    28    20    21    1
    29    20    22    1
    30    22    23    1
    31    22    24    1
    32    22    25    1
    33    32    33    1
    34    32    34    1
    35    13    35    1
    36    35    36    1
    37    13    37    1
    38    32    38    1
    39    38    39    1
    40    38    40    1
    41    38    41    1
@<TRIPOS>SUBSTRUCTURE
     1 1           1 GROUP             0 ****  ****    0  
@<TRIPOS>MOLECULE
Molecule Name_00001_00427
    41    41     1     0     0
SMALL
NO_CHARGES
****
Generated from the CSD

@<TRIPOS>ATOM
     1 C5      -5.3942   0.8974  -0.0624   C.ar      1 1      0.0000
     2 C4      -4.3000   1.6696   0.2627   C.ar      1 1      0.0000
     3 C3      -3.0219   1.1493   0.1457   C.ar      1 1      0.0000
     4 C8      -2.8215  -0.1487  -0.2985   C.ar      1 1      0.0000
     5 C7      -3.9313  -0.9144  -0.6208   C.ar      1 1      0.0000
     6 C6      -5.2098  -0.3950  -0.5041   C.ar      1 1      0.0000
     7 H4      -4.4402   2.6875   0.6112   H         1 1      0.0000
     8 C9      -1.4283  -0.7165  -0.4228   C.3       1 1      0.0000
     9 H7      -3.7966  -1.9332  -0.9689   H         1 1      0.0000
    10 H6      -6.0682  -1.0069  -0.7609   H         1 1      0.0000
    11 C10     -0.6419  -0.6691   0.8858   C.3       1 1      0.0000
    12 H9A     -1.4972  -1.7581  -0.7603   H         1 1      0.0000
    13 C11      0.8567  -0.8873   0.7528   C.3       1 1      0.0000
    14 C12      1.5452   0.2927   0.0757   C.3       1 1      0.0000
    15 H12A     1.4287   1.1844   0.7039   H         1 1      0.0000
    16 C13      3.0044   0.0542  -0.1680   C.2       1 1      0.0000
    17 C14      3.9776   0.7042   0.7692   C.3       1 1      0.0000
    18 H14B     4.9113   0.1285   0.7621   H         1 1      0.0000
    19 H14A     3.5750   0.6694   1.7889   H         1 1      0.0000
    20 N        3.4060  -0.7141  -1.1609   N.pl3     1 1      0.0000
    21 HN       2.6760  -1.1892  -1.6915   H         1 1      0.0000
    22 C        4.7806  -1.0606  -1.4914   C.3       1 1      0.0000
    23 H1A      4.8124  -1.9252  -2.1512   H         1 1      0.0000
    24 H1C      5.2765  -0.2327  -1.9939   H         1 1      0.0000
    25 H1B      5.3461  -1.2988  -0.5931   H         1 1      0.0000
    26 H10A    -0.8083   0.3092   1.3532   H         1 1      0.0000
    27 H10B    -1.0446  -1.4355   1.5596   H         1 1      0.0000
    28 H9B     -0.8812  -0.1531  -1.1887   H         1 1      0.0000
    29 H5      -6.3957   1.3048   0.0289   H         1 1      0.0000
    30 H3      -2.1670   1.7651   0.4047   H         1 1      0.0000
    31 H12B     1.0511   0.4931  -0.8831   H         1 1      0.0000
    32 C15      4.2900   2.1453   0.4110   C.3       1 1      0.0000
    33 H15A     3.3597   2.7266   0.4143   H         1 1      0.0000
    34 H15C     4.7037   2.1822  -0.6043   H         1 1      0.0000
    35 OH       1.4175  -1.0723   2.0555   O.3       1 1      0.0000
    36 OH1      0.9916  -1.8514   2.4910   H         1 1      0.0000
    37 H22      1.0337  -1.7943   0.1543   H         1 1      0.0000
    38 C16      5.2723   2.7769   1.3701   C.3       1 1      0.0000
    39 H16C     6.2144   2.2326   1.3713   H         1 1      0.0000
    40 H16A     5.4770   3.8079   1.0892   H         1 1      0.0000
    41 H16B     4.8777   2.7738   2.3840   H         1 1      0.0000
@<TRIPOS>BOND
     1     1     2   ar
     2     1     6   ar
     3     1    29    1
     4     2     3   ar
     5     2     7    1
     6     3     4   ar
     7     3    30    1
     8     4     5   ar
     9     4     8    1
    10     5     6   ar
    11     5     9    1
    12     6    10    1
    13     8    11    1
    14     8    12    1
    15     8    28    1
    16    11    13    1
    17    11    26    1
    18    11    27    1
    19    13    14    1
    20    14    15    1
    21    14    16    1
    22    14    31    1
    23    16    17    1
    24    16    20    2
    25    17    18    1
    26    17    19    1
    27    17    32    1
    28    20    21    1
    29    20    22    1
    30    22    23    1
    31    22    24    1
    32    22    25    1
    33    32    33    1
    34    32    34    1
    35    13    35    1
    36    35    36    1
    37    13    37    1
    38    32    38    1
    39    38    39    1
    40    38    40    1
    41    38    41    1
@<TRIPOS>SUBSTRUCTURE
     1 1           1 GROUP             0 ****  ****    0  
@<TRIPOS>MOLECULE
Molecule Name_00001_00428
    41    41     1     0     0
SMALL
NO_CHARGES
****
Generated from the CSD

@<TRIPOS>ATOM
     1 C5      -5.5992   0.2980  -0.3726   C.ar      1 1      0.0000
     2 C4      -4.8623  -0.7385  -0.9038   C.ar      1 1      0.0000
     3 C3      -3.5482  -0.9305  -0.5111   C.ar      1 1      0.0000
     4 C8      -2.9545  -0.0896   0.4177   C.ar      1 1      0.0000
     5 C7      -3.7071   0.9496   0.9428   C.ar      1 1      0.0000
     6 C6      -5.0213   1.1423   0.5507   C.ar      1 1      0.0000
     7 H4      -5.3128  -1.4057  -1.6312   H         1 1      0.0000
     8 C9      -1.5210  -0.2972   0.8431   C.3       1 1      0.0000
     9 H7      -3.2611   1.6201   1.6698   H         1 1      0.0000
    10 H6      -5.5973   1.9600   0.9714   H         1 1      0.0000
    11 C10     -0.5167   0.4041  -0.0694   C.3       1 1      0.0000
    12 H9A     -1.3956   0.0774   1.8665   H         1 1      0.0000
    13 C11      0.9439   0.2280   0.3134   C.3       1 1      0.0000
    14 C12      1.8585   0.2540  -0.9063   C.3       1 1      0.0000
    15 H12A     1.9195   1.2812  -1.2867   H         1 1      0.0000
    16 C13      3.2418  -0.2390  -0.6079   C.2       1 1      0.0000
    17 C14      3.7996   0.0474   0.7539   C.3       1 1      0.0000
    18 H14B     4.6232  -0.6500   0.9509   H         1 1      0.0000
    19 H14A     3.0239  -0.1352   1.5076   H         1 1      0.0000
    20 N        3.9268  -0.9137  -1.5096   N.pl3     1 1      0.0000
    21 HN       3.4370  -1.1427  -2.3744   H         1 1      0.0000
    22 C        5.2574  -1.4807  -1.3459   C.3       1 1      0.0000
    23 H1A      5.4524  -2.2329  -2.1075   H         1 1      0.0000
    24 H1C      6.0186  -0.7079  -1.4304   H         1 1      0.0000
    25 H1B      5.3599  -1.9514  -0.3705   H         1 1      0.0000
    26 H10A    -0.6544   0.0253  -1.0897   H         1 1      0.0000
    27 H10B    -0.7456   1.4769  -0.0763   H         1 1      0.0000
    28 H9B     -1.3046  -1.3726   0.8524   H         1 1      0.0000
    29 H5      -6.6288   0.4485  -0.6798   H         1 1      0.0000
    30 H3      -2.9763  -1.7490  -0.9355   H         1 1      0.0000
    31 H12B     1.4199  -0.3687  -1.6958   H         1 1      0.0000
    32 C15      4.3141   1.4665   0.9093   C.3       1 1      0.0000
    33 H15A     3.4960   2.1696   0.7097   H         1 1      0.0000
    34 H15C     5.0998   1.6479   0.1655   H         1 1      0.0000
    35 OH       1.3216   1.2808   1.2048   O.3       1 1      0.0000
    36 OH1      0.7473   1.2545   2.0095   H         1 1      0.0000
    37 H22      1.0641  -0.7378   0.8282   H         1 1      0.0000
    38 C16      4.8681   1.7301   2.2903   C.3       1 1      0.0000
    39 H16C     5.6972   1.0601   2.5076   H         1 1      0.0000
    40 H16A     5.2287   2.7533   2.3724   H         1 1      0.0000
    41 H16B     4.1024   1.5788   3.0484   H         1 1      0.0000
@<TRIPOS>BOND
     1     1     2   ar
     2     1     6   ar
     3     1    29    1
     4     2     3   ar
     5     2     7    1
     6     3     4   ar
     7     3    30    1
     8     4     5   ar
     9     4     8    1
    10     5     6   ar
    11     5     9    1
    12     6    10    1
    13     8    11    1
    14     8    12    1
    15     8    28    1
    16    11    13    1
    17    11    26    1
    18    11    27    1
    19    13    14    1
    20    14    15    1
    21    14    16    1
    22    14    31    1
    23    16    17    1
    24    16    20    2
    25    17    18    1
    26    17    19    1
    27    17    32    1
    28    20    21    1
    29    20    22    1
    30    22    23    1
    31    22    24    1
    32    22    25    1
    33    32    33    1
    34    32    34    1
    35    13    35    1
    36    35    36    1
    37    13    37    1
    38    32    38    1
    39    38    39    1
    40    38    40    1
    41    38    41    1
@<TRIPOS>SUBSTRUCTURE
     1 1           1 GROUP             0 ****  ****    0  
@<TRIPOS>MOLECULE
Molecule Name_00001_00429
    41    41     1     0     0
SMALL
NO_CHARGES
****
Generated from the CSD

@<TRIPOS>ATOM
     1 C5      -5.5891   0.2573   0.7038   C.ar      1 1      0.0000
     2 C4      -5.3798  -0.2095  -0.5759   C.ar      1 1      0.0000
     3 C3      -4.0941  -0.2949  -1.0835   C.ar      1 1      0.0000
     4 C8      -3.0018   0.0843  -0.3185   C.ar      1 1      0.0000
     5 C7      -3.2274   0.5532   0.9666   C.ar      1 1      0.0000
     6 C6      -4.5127   0.6389   1.4751   C.ar      1 1      0.0000
     7 H4      -6.2241  -0.5108  -1.1871   H         1 1      0.0000
     8 C9      -1.6008  -0.0058  -0.8733   C.3       1 1      0.0000
     9 H7      -2.3865   0.8566   1.5815   H         1 1      0.0000
    10 H6      -4.6725   1.0073   2.4831   H         1 1      0.0000
    11 C10     -0.5326   0.4552   0.1163   C.3       1 1      0.0000
    12 H9A     -1.3974  -1.0451  -1.1596   H         1 1      0.0000
    13 C11      0.8986   0.3853  -0.3914   C.3       1 1      0.0000
    14 C12      1.8258  -0.2905   0.6128   C.3       1 1      0.0000
    15 H12A     1.5076  -1.3313   0.7504   H         1 1      0.0000
    16 C13      3.2617  -0.2716   0.1843   C.2       1 1      0.0000
    17 C14      3.9944   1.0331   0.2777   C.3       1 1      0.0000
    18 H14B     3.3203   1.8389  -0.0381   H         1 1      0.0000
    19 H14A     4.8436   1.0208  -0.4163   H         1 1      0.0000
    20 N        3.8537  -1.3701  -0.2401   N.pl3     1 1      0.0000
    21 HN       3.3088  -2.2303  -0.1845   H         1 1      0.0000
    22 C        5.2436  -1.5059  -0.6510   C.3       1 1      0.0000
    23 H1A      5.6337  -2.4832  -0.3743   H         1 1      0.0000
    24 H1C      5.3392  -1.3959  -1.7292   H         1 1      0.0000
    25 H1B      5.8628  -0.7472  -0.1772   H         1 1      0.0000
    26 H10A    -0.7485   1.4930   0.3986   H         1 1      0.0000
    27 H10B    -0.6093  -0.1611   1.0205   H         1 1      0.0000
    28 H9B     -1.5366   0.6087  -1.7798   H         1 1      0.0000
    29 H5      -6.5962   0.3241   1.1019   H         1 1      0.0000
    30 H3      -3.9397  -0.6631  -2.0924   H         1 1      0.0000
    31 H12B     1.7354   0.2170   1.5811   H         1 1      0.0000
    32 C15      4.5028   1.3413   1.6739   C.3       1 1      0.0000
    33 H15A     5.1763   0.5380   1.9970   H         1 1      0.0000
    34 H15C     3.6542   1.3658   2.3686   H         1 1      0.0000
    35 OH       0.9218  -0.3493  -1.6185   O.3       1 1      0.0000
    36 OH1      0.5259   0.1995  -2.3396   H         1 1      0.0000
    37 H22      1.2613   1.4078  -0.5790   H         1 1      0.0000
    38 C16      5.2370   2.6605   1.7411   C.3       1 1      0.0000
    39 H16C     4.5851   3.4801   1.4461   H         1 1      0.0000
    40 H16A     5.5895   2.8547   2.7519   H         1 1      0.0000
    41 H16B     6.0985   2.6567   1.0766   H         1 1      0.0000
@<TRIPOS>BOND
     1     1     2   ar
     2     1     6   ar
     3     1    29    1
     4     2     3   ar
     5     2     7    1
     6     3     4   ar
     7     3    30    1
     8     4     5   ar
     9     4     8    1
    10     5     6   ar
    11     5     9    1
    12     6    10    1
    13     8    11    1
    14     8    12    1
    15     8    28    1
    16    11    13    1
    17    11    26    1
    18    11    27    1
    19    13    14    1
    20    14    15    1
    21    14    16    1
    22    14    31    1
    23    16    17    1
    24    16    20    2
    25    17    18    1
    26    17    19    1
    27    17    32    1
    28    20    21    1
    29    20    22    1
    30    22    23    1
    31    22    24    1
    32    22    25    1
    33    32    33    1
    34    32    34    1
    35    13    35    1
    36    35    36    1
    37    13    37    1
    38    32    38    1
    39    38    39    1
    40    38    40    1
    41    38    41    1
@<TRIPOS>SUBSTRUCTURE
     1 1           1 GROUP             0 ****  ****    0  
@<TRIPOS>MOLECULE
Molecule Name_00001_00430
    41    41     1     0     0
SMALL
NO_CHARGES
****
Generated from the CSD

@<TRIPOS>ATOM
     1 C5      -5.5817   0.0230   0.4732   C.ar      1 1      0.0000
     2 C4      -5.2558   0.3823  -0.8168   C.ar      1 1      0.0000
     3 C3      -3.9286   0.5337  -1.1824   C.ar      1 1      0.0000
     4 C8      -2.9109   0.3270  -0.2640   C.ar      1 1      0.0000
     5 C7      -3.2534  -0.0328   1.0304   C.ar      1 1      0.0000
     6 C6      -4.5802  -0.1844   1.3970   C.ar      1 1      0.0000
     7 H4      -6.0407   0.5470  -1.5475   H         1 1      0.0000
     8 C9      -1.4645   0.4953  -0.6621   C.3       1 1      0.0000
     9 H7      -2.4723  -0.1978   1.7651   H         1 1      0.0000
    10 H6      -4.8319  -0.4671   2.4139   H         1 1      0.0000
    11 C10     -0.4913   0.2248   0.4836   C.3       1 1      0.0000
    12 H9A     -1.2410  -0.1896  -1.4895   H         1 1      0.0000
    13 C11      0.9808   0.3800   0.1375   C.3       1 1      0.0000
    14 C12      1.8059  -0.8097   0.6158   C.3       1 1      0.0000
    15 H12A     1.4355  -1.7211   0.1306   H         1 1      0.0000
    16 C13      3.2679  -0.6602   0.3229   C.2       1 1      0.0000
    17 C14      4.0552   0.2756   1.1901   C.3       1 1      0.0000
    18 H14B     5.0876  -0.0894   1.2555   H         1 1      0.0000
    19 H14A     3.6362   0.2672   2.2037   H         1 1      0.0000
    20 N        3.8341  -1.3439  -0.6514   N.pl3     1 1      0.0000
    21 HN       3.2451  -2.0249  -1.1305   H         1 1      0.0000
    22 C        5.2415  -1.3257  -1.0230   C.3       1 1      0.0000
    23 H1A      5.5087  -2.2300  -1.5659   H         1 1      0.0000
    24 H1C      5.4609  -0.4712  -1.6597   H         1 1      0.0000
    25 H1B      5.8737  -1.2611  -0.1401   H         1 1      0.0000
    26 H10A    -0.7269   0.9115   1.3060   H         1 1      0.0000
    27 H10B    -0.6560  -0.7984   0.8435   H         1 1      0.0000
    28 H9B     -1.3121   1.5190  -1.0258   H         1 1      0.0000
    29 H5      -6.6213  -0.0959   0.7600   H         1 1      0.0000
    30 H3      -3.6824   0.8174  -2.2003   H         1 1      0.0000
    31 H12B     1.6688  -0.9283   1.6977   H         1 1      0.0000
    32 C15      4.0740   1.7033   0.6760   C.3       1 1      0.0000
    33 H15A     3.0452   2.0803   0.6233   H         1 1      0.0000
    34 H15C     4.4866   1.7143  -0.3404   H         1 1      0.0000
    35 OH       1.1149   0.5029  -1.2812   O.3       1 1      0.0000
    36 OH1      0.8436   1.4117  -1.5612   H         1 1      0.0000
    37 H22      1.3652   1.2948   0.6144   H         1 1      0.0000
    38 C16      4.8934   2.6206   1.5539   C.3       1 1      0.0000
    39 H16C     5.9262   2.2825   1.6071   H         1 1      0.0000
    40 H16A     4.8888   3.6354   1.1618   H         1 1      0.0000
    41 H16B     4.4927   2.6462   2.5651   H         1 1      0.0000
@<TRIPOS>BOND
     1     1     2   ar
     2     1     6   ar
     3     1    29    1
     4     2     3   ar
     5     2     7    1
     6     3     4   ar
     7     3    30    1
     8     4     5   ar
     9     4     8    1
    10     5     6   ar
    11     5     9    1
    12     6    10    1
    13     8    11    1
    14     8    12    1
    15     8    28    1
    16    11    13    1
    17    11    26    1
    18    11    27    1
    19    13    14    1
    20    14    15    1
    21    14    16    1
    22    14    31    1
    23    16    17    1
    24    16    20    2
    25    17    18    1
    26    17    19    1
    27    17    32    1
    28    20    21    1
    29    20    22    1
    30    22    23    1
    31    22    24    1
    32    22    25    1
    33    32    33    1
    34    32    34    1
    35    13    35    1
    36    35    36    1
    37    13    37    1
    38    32    38    1
    39    38    39    1
    40    38    40    1
    41    38    41    1
@<TRIPOS>SUBSTRUCTURE
     1 1           1 GROUP             0 ****  ****    0  
@<TRIPOS>MOLECULE
Molecule Name_00001_00431
    41    41     1     0     0
SMALL
NO_CHARGES
****
Generated from the CSD

@<TRIPOS>ATOM
     1 C5      -5.5923   0.4466  -0.4187   C.ar      1 1      0.0000
     2 C4      -5.2670   0.7027   0.8959   C.ar      1 1      0.0000
     3 C3      -3.9586   0.5643   1.3283   C.ar      1 1      0.0000
     4 C8      -2.9591   0.1693   0.4524   C.ar      1 1      0.0000
     5 C7      -3.3010  -0.0860  -0.8667   C.ar      1 1      0.0000
     6 C6      -4.6090   0.0520  -1.3001   C.ar      1 1      0.0000
     7 H4      -6.0376   1.0132   1.5936   H         1 1      0.0000
     8 C9      -1.5337   0.0155   0.9249   C.3       1 1      0.0000
     9 H7      -2.5342  -0.3978  -1.5682   H         1 1      0.0000
    10 H6      -4.8604  -0.1510  -2.3359   H         1 1      0.0000
    11 C10     -0.5787  -0.4258  -0.1825   C.3       1 1      0.0000
    12 H9A     -1.1886   0.9735   1.3329   H         1 1      0.0000
    13 C11      0.8720  -0.5965   0.2388   C.3       1 1      0.0000
    14 C12      1.8291   0.0985  -0.7234   C.3       1 1      0.0000
    15 H12A     1.6728   1.1827  -0.6638   H         1 1      0.0000
    16 C13      3.2679  -0.2041  -0.4340   C.2       1 1      0.0000
    17 C14      3.9038   0.5025   0.7254   C.3       1 1      0.0000
    18 H14B     4.7523  -0.0957   1.0799   H         1 1      0.0000
    19 H14A     3.1806   0.5709   1.5473   H         1 1      0.0000
    20 N        3.9351  -1.0736  -1.1662   N.pl3     1 1      0.0000
    21 HN       3.4006  -1.5750  -1.8755   H         1 1      0.0000
    22 C        5.3174  -1.4894  -0.9786   C.3       1 1      0.0000
    23 H1A      5.5052  -2.4391  -1.4751   H         1 1      0.0000
    24 H1C      6.0014  -0.7505  -1.3909   H         1 1      0.0000
    25 H1B      5.5453  -1.6086   0.0785   H         1 1      0.0000
    26 H10A    -0.9358  -1.3814  -0.5857   H         1 1      0.0000
    27 H10B    -0.6194   0.3152  -0.9904   H         1 1      0.0000
    28 H9B     -1.5051  -0.7225   1.7360   H         1 1      0.0000
    29 H5      -6.6171   0.5551  -0.7579   H         1 1      0.0000
    30 H3      -3.7127   0.7677   2.3653   H         1 1      0.0000
    31 H12B     1.5971  -0.2162  -1.7484   H         1 1      0.0000
    32 C15      4.3976   1.8966   0.3856   C.3       1 1      0.0000
    33 H15A     3.5540   2.4999   0.0283   H         1 1      0.0000
    34 H15C     5.1299   1.8305  -0.4285   H         1 1      0.0000
    35 OH       1.0439  -0.0478   1.5484   O.3       1 1      0.0000
    36 OH1      0.7018  -0.6863   2.2217   H         1 1      0.0000
    37 H22      1.1118  -1.6707   0.2659   H         1 1      0.0000
    38 C16      5.0337   2.5866   1.5700   C.3       1 1      0.0000
    39 H16C     5.8889   2.0202   1.9328   H         1 1      0.0000
    40 H16A     5.3776   3.5822   1.2974   H         1 1      0.0000
    41 H16B     4.3217   2.6858   2.3867   H         1 1      0.0000
@<TRIPOS>BOND
     1     1     2   ar
     2     1     6   ar
     3     1    29    1
     4     2     3   ar
     5     2     7    1
     6     3     4   ar
     7     3    30    1
     8     4     5   ar
     9     4     8    1
    10     5     6   ar
    11     5     9    1
    12     6    10    1
    13     8    11    1
    14     8    12    1
    15     8    28    1
    16    11    13    1
    17    11    26    1
    18    11    27    1
    19    13    14    1
    20    14    15    1
    21    14    16    1
    22    14    31    1
    23    16    17    1
    24    16    20    2
    25    17    18    1
    26    17    19    1
    27    17    32    1
    28    20    21    1
    29    20    22    1
    30    22    23    1
    31    22    24    1
    32    22    25    1
    33    32    33    1
    34    32    34    1
    35    13    35    1
    36    35    36    1
    37    13    37    1
    38    32    38    1
    39    38    39    1
    40    38    40    1
    41    38    41    1
@<TRIPOS>SUBSTRUCTURE
     1 1           1 GROUP             0 ****  ****    0  
@<TRIPOS>MOLECULE
Molecule Name_00001_00432
    41    41     1     0     0
SMALL
NO_CHARGES
****
Generated from the CSD

@<TRIPOS>ATOM
     1 C5      -5.4456  -0.1054  -0.0115   C.ar      1 1      0.0000
     2 C4      -4.6638  -0.3453  -1.1208   C.ar      1 1      0.0000
     3 C3      -3.2842  -0.3816  -1.0049   C.ar      1 1      0.0000
     4 C8      -2.6689  -0.1796   0.2209   C.ar      1 1      0.0000
     5 C7      -3.4676   0.0618   1.3281   C.ar      1 1      0.0000
     6 C6      -4.8473   0.0983   1.2133   C.ar      1 1      0.0000
     7 H4      -5.1302  -0.5059  -2.0872   H         1 1      0.0000
     8 C9      -1.1650  -0.2160   0.3462   C.3       1 1      0.0000
     9 H7      -3.0061   0.2241   2.2966   H         1 1      0.0000
    10 H6      -5.4586   0.2878   2.0894   H         1 1      0.0000
    11 C10     -0.5068   1.1342   0.0694   C.3       1 1      0.0000
    12 H9A     -0.9000  -0.5412   1.3598   H         1 1      0.0000
    13 C11      1.0091   1.1546   0.1818   C.3       1 1      0.0000
    14 C12      1.6738   0.3840  -0.9535   C.3       1 1      0.0000
    15 H12A     1.7691   1.0423  -1.8259   H         1 1      0.0000
    16 C13      3.0291  -0.1398  -0.5869   C.2       1 1      0.0000
    17 C14      4.1330   0.8595  -0.4118   C.3       1 1      0.0000
    18 H14B     3.9697   1.6903  -1.1093   H         1 1      0.0000
    19 H14A     5.0894   0.3906  -0.6736   H         1 1      0.0000
    20 N        3.2283  -1.4307  -0.4097   N.pl3     1 1      0.0000
    21 HN       2.4034  -2.0285  -0.4585   H         1 1      0.0000
    22 C        4.4749  -2.0729  -0.0190   C.3       1 1      0.0000
    23 H1A      4.3293  -2.6928   0.8631   H         1 1      0.0000
    24 H1C      4.8494  -2.7065  -0.8202   H         1 1      0.0000
    25 H1B      5.2368  -1.3310   0.2100   H         1 1      0.0000
    26 H10A    -0.7822   1.4511  -0.9441   H         1 1      0.0000
    27 H10B    -0.9158   1.8695   0.7734   H         1 1      0.0000
    28 H9B     -0.7670  -0.9580  -0.3571   H         1 1      0.0000
    29 H5      -6.5264  -0.0772  -0.1018   H         1 1      0.0000
    30 H3      -2.6775  -0.5705  -1.8844   H         1 1      0.0000
    31 H12B     1.0309  -0.4576  -1.2392   H         1 1      0.0000
    32 C15      4.2257   1.4159   0.9969   C.3       1 1      0.0000
    33 H15A     3.2556   1.8427   1.2798   H         1 1      0.0000
    34 H15C     4.9656   2.2256   1.0160   H         1 1      0.0000
    35 OH       1.4596   2.5118   0.1536   O.3       1 1      0.0000
    36 OH1      1.0503   3.0115   0.9025   H         1 1      0.0000
    37 H22      1.3021   0.6996   1.1406   H         1 1      0.0000
    38 C16      4.6171   0.3626   2.0074   C.3       1 1      0.0000
    39 H16C     5.6267   0.0035   1.8189   H         1 1      0.0000
    40 H16A     4.5839   0.7658   3.0174   H         1 1      0.0000
    41 H16B     3.9404  -0.4880   1.9596   H         1 1      0.0000
@<TRIPOS>BOND
     1     1     2   ar
     2     1     6   ar
     3     1    29    1
     4     2     3   ar
     5     2     7    1
     6     3     4   ar
     7     3    30    1
     8     4     5   ar
     9     4     8    1
    10     5     6   ar
    11     5     9    1
    12     6    10    1
    13     8    11    1
    14     8    12    1
    15     8    28    1
    16    11    13    1
    17    11    26    1
    18    11    27    1
    19    13    14    1
    20    14    15    1
    21    14    16    1
    22    14    31    1
    23    16    17    1
    24    16    20    2
    25    17    18    1
    26    17    19    1
    27    17    32    1
    28    20    21    1
    29    20    22    1
    30    22    23    1
    31    22    24    1
    32    22    25    1
    33    32    33    1
    34    32    34    1
    35    13    35    1
    36    35    36    1
    37    13    37    1
    38    32    38    1
    39    38    39    1
    40    38    40    1
    41    38    41    1
@<TRIPOS>SUBSTRUCTURE
     1 1           1 GROUP             0 ****  ****    0  
@<TRIPOS>MOLECULE
Molecule Name_00001_00433
    41    41     1     0     0
SMALL
NO_CHARGES
****
Generated from the CSD

@<TRIPOS>ATOM
     1 C5      -5.5611  -0.2452   0.0427   C.ar      1 1      0.0000
     2 C4      -4.8031  -0.7808   1.0616   C.ar      1 1      0.0000
     3 C3      -3.4794  -0.4039   1.2157   C.ar      1 1      0.0000
     4 C8      -2.8971   0.5132   0.3543   C.ar      1 1      0.0000
     5 C7      -3.6711   1.0428  -0.6668   C.ar      1 1      0.0000
     6 C6      -4.9949   0.6666  -0.8218   C.ar      1 1      0.0000
     7 H4      -5.2444  -1.4992   1.7444   H         1 1      0.0000
     8 C9      -1.4533   0.9212   0.5207   C.3       1 1      0.0000
     9 H7      -3.2343   1.7609  -1.3529   H         1 1      0.0000
    10 H6      -5.5876   1.0907  -1.6256   H         1 1      0.0000
    11 C10     -0.4800  -0.0074  -0.2030   C.3       1 1      0.0000
    12 H9A     -1.3252   1.9411   0.1376   H         1 1      0.0000
    13 C11      0.9896   0.3576  -0.0686   C.3       1 1      0.0000
    14 C12      1.8900  -0.6293  -0.8034   C.3       1 1      0.0000
    15 H12A     1.7483  -0.5075  -1.8844   H         1 1      0.0000
    16 C13      3.3414  -0.4475  -0.4779   C.2       1 1      0.0000
    17 C14      3.8639   0.9560  -0.4060   C.3       1 1      0.0000
    18 H14B     3.3259   1.5699  -1.1388   H         1 1      0.0000
    19 H14A     4.9246   0.9611  -0.6849   H         1 1      0.0000
    20 N        4.1168  -1.4882  -0.2475   N.pl3     1 1      0.0000
    21 HN       3.6595  -2.3996  -0.2267   H         1 1      0.0000
    22 C        5.5268  -1.4596   0.1131   C.3       1 1      0.0000
    23 H1A      5.7066  -2.0436   1.0133   H         1 1      0.0000
    24 H1C      6.1375  -1.8733  -0.6867   H         1 1      0.0000
    25 H1B      5.8578  -0.4400   0.2987   H         1 1      0.0000
    26 H10A    -0.6202  -1.0240   0.1846   H         1 1      0.0000
    27 H10B    -0.7381  -0.0164  -1.2691   H         1 1      0.0000
    28 H9B     -1.2075   0.9329   1.5897   H         1 1      0.0000
    29 H5      -6.5983  -0.5400  -0.0782   H         1 1      0.0000
    30 H3      -2.8908  -0.8317   2.0206   H         1 1      0.0000
    31 H12B     1.5904  -1.6513  -0.5406   H         1 1      0.0000
    32 C15      3.7114   1.5874   0.9655   C.3       1 1      0.0000
    33 H15A     2.6510   1.5850   1.2467   H         1 1      0.0000
    34 H15C     4.0427   2.6321   0.9195   H         1 1      0.0000
    35 OH       1.1947   1.6677  -0.6046   O.3       1 1      0.0000
    36 OH1      0.6339   2.3173  -0.1131   H         1 1      0.0000
    37 H22      1.2605   0.3606   0.9986   H         1 1      0.0000
    38 C16      4.5067   0.8609   2.0254   C.3       1 1      0.0000
    39 H16C     5.5747   0.9886   1.8613   H         1 1      0.0000
    40 H16A     4.2680   1.2424   3.0159   H         1 1      0.0000
    41 H16B     4.2865  -0.2045   2.0104   H         1 1      0.0000
@<TRIPOS>BOND
     1     1     2   ar
     2     1     6   ar
     3     1    29    1
     4     2     3   ar
     5     2     7    1
     6     3     4   ar
     7     3    30    1
     8     4     5   ar
     9     4     8    1
    10     5     6   ar
    11     5     9    1
    12     6    10    1
    13     8    11    1
    14     8    12    1
    15     8    28    1
    16    11    13    1
    17    11    26    1
    18    11    27    1
    19    13    14    1
    20    14    15    1
    21    14    16    1
    22    14    31    1
    23    16    17    1
    24    16    20    2
    25    17    18    1
    26    17    19    1
    27    17    32    1
    28    20    21    1
    29    20    22    1
    30    22    23    1
    31    22    24    1
    32    22    25    1
    33    32    33    1
    34    32    34    1
    35    13    35    1
    36    35    36    1
    37    13    37    1
    38    32    38    1
    39    38    39    1
    40    38    40    1
    41    38    41    1
@<TRIPOS>SUBSTRUCTURE
     1 1           1 GROUP             0 ****  ****    0  
@<TRIPOS>MOLECULE
Molecule Name_00001_00434
    41    41     1     0     0
SMALL
NO_CHARGES
****
Generated from the CSD

@<TRIPOS>ATOM
     1 C5      -4.1310   0.3025   1.6462   C.ar      1 1      0.0000
     2 C4      -4.0071  -0.5860   0.6000   C.ar      1 1      0.0000
     3 C3      -2.9581  -0.4638  -0.2959   C.ar      1 1      0.0000
     4 C8      -2.0196   0.5471  -0.1570   C.ar      1 1      0.0000
     5 C7      -2.1573   1.4345   0.8993   C.ar      1 1      0.0000
     6 C6      -3.2059   1.3131   1.7957   C.ar      1 1      0.0000
     7 H4      -4.7331  -1.3830   0.4779   H         1 1      0.0000
     8 C9      -0.8781   0.6819  -1.1356   C.3       1 1      0.0000
     9 H7      -1.4345   2.2338   1.0252   H         1 1      0.0000
    10 H6      -3.2994   2.0153   2.6176   H         1 1      0.0000
    11 C10      0.0624  -0.5217  -1.1302   C.3       1 1      0.0000
    12 H9A     -1.2879   0.8100  -2.1451   H         1 1      0.0000
    13 C11      1.2339  -0.4366  -2.0952   C.3       1 1      0.0000
    14 C12      2.2742   0.5801  -1.6384   C.3       1 1      0.0000
    15 H12A     1.8039   1.5690  -1.5720   H         1 1      0.0000
    16 C13      2.8802   0.2375  -0.3114   C.2       1 1      0.0000
    17 C14      2.6292   1.1794   0.8277   C.3       1 1      0.0000
    18 H14B     2.6253   2.2061   0.4413   H         1 1      0.0000
    19 H14A     3.4513   1.1005   1.5494   H         1 1      0.0000
    20 N        3.5906  -0.8621  -0.1577   N.pl3     1 1      0.0000
    21 HN       3.6339  -1.4906  -0.9597   H         1 1      0.0000
    22 C        4.2041  -1.3362   1.0743   C.3       1 1      0.0000
    23 H1A      4.1825  -2.4229   1.1224   H         1 1      0.0000
    24 H1C      5.2417  -1.0149   1.1364   H         1 1      0.0000
    25 H1B      3.6770  -0.9479   1.9431   H         1 1      0.0000
    26 H10A     0.4595  -0.6448  -0.1150   H         1 1      0.0000
    27 H10B    -0.5214  -1.4182  -1.3729   H         1 1      0.0000
    28 H9B     -0.3043   1.5844  -0.8913   H         1 1      0.0000
    29 H5      -4.9525   0.2070   2.3484   H         1 1      0.0000
    30 H3      -2.8696  -1.1680  -1.1166   H         1 1      0.0000
    31 H12B     3.0709   0.6394  -2.3902   H         1 1      0.0000
    32 C15      1.3167   0.9230   1.5450   C.3       1 1      0.0000
    33 H15A     1.2932  -0.1177   1.8909   H         1 1      0.0000
    34 H15C     0.4882   1.0596   0.8391   H         1 1      0.0000
    35 OH       1.8492  -1.7240  -2.1948   O.3       1 1      0.0000
    36 OH1      1.1852  -2.3838  -2.5138   H         1 1      0.0000
    37 H22      0.8586  -0.1411  -3.0872   H         1 1      0.0000
    38 C16      1.1176   1.8427   2.7274   C.3       1 1      0.0000
    39 H16C     1.1125   2.8834   2.4100   H         1 1      0.0000
    40 H16A     0.1715   1.6348   3.2228   H         1 1      0.0000
    41 H16B     1.9165   1.7142   3.4548   H         1 1      0.0000
@<TRIPOS>BOND
     1     1     2   ar
     2     1     6   ar
     3     1    29    1
     4     2     3   ar
     5     2     7    1
     6     3     4   ar
     7     3    30    1
     8     4     5   ar
     9     4     8    1
    10     5     6   ar
    11     5     9    1
    12     6    10    1
    13     8    11    1
    14     8    12    1
    15     8    28    1
    16    11    13    1
    17    11    26    1
    18    11    27    1
    19    13    14    1
    20    14    15    1
    21    14    16    1
    22    14    31    1
    23    16    17    1
    24    16    20    2
    25    17    18    1
    26    17    19    1
    27    17    32    1
    28    20    21    1
    29    20    22    1
    30    22    23    1
    31    22    24    1
    32    22    25    1
    33    32    33    1
    34    32    34    1
    35    13    35    1
    36    35    36    1
    37    13    37    1
    38    32    38    1
    39    38    39    1
    40    38    40    1
    41    38    41    1
@<TRIPOS>SUBSTRUCTURE
     1 1           1 GROUP             0 ****  ****    0  
@<TRIPOS>MOLECULE
Molecule Name_00001_00435
    41    41     1     0     0
SMALL
NO_CHARGES
****
Generated from the CSD

@<TRIPOS>ATOM
     1 C5      -4.4361   1.1902  -0.5991   C.ar      1 1      0.0000
     2 C4      -3.6914   0.7521  -1.6728   C.ar      1 1      0.0000
     3 C3      -2.4578   0.1571  -1.4673   C.ar      1 1      0.0000
     4 C8      -1.9536  -0.0081  -0.1864   C.ar      1 1      0.0000
     5 C7      -2.7130   0.4384   0.8841   C.ar      1 1      0.0000
     6 C6      -3.9467   1.0335   0.6796   C.ar      1 1      0.0000
     7 H4      -4.0724   0.8736  -2.6815   H         1 1      0.0000
     8 C9      -0.6075  -0.6538   0.0370   C.3       1 1      0.0000
     9 H7      -2.3361   0.3201   1.8947   H         1 1      0.0000
    10 H6      -4.5292   1.3771   1.5281   H         1 1      0.0000
    11 C10     -0.2244  -0.7476   1.5126   C.3       1 1      0.0000
    12 H9A     -0.6209  -1.6628  -0.3932   H         1 1      0.0000
    13 C11      1.1089  -1.4201   1.7974   C.3       1 1      0.0000
    14 C12      2.2828  -0.4737   1.5712   C.3       1 1      0.0000
    15 H12A     3.1873  -0.9135   2.0090   H         1 1      0.0000
    16 C13      2.5309  -0.1896   0.1209   C.2       1 1      0.0000
    17 C14      2.1955   1.1823  -0.3825   C.3       1 1      0.0000
    18 H14B     1.2586   1.5096   0.0848   H         1 1      0.0000
    19 H14A     2.0276   1.1384  -1.4656   H         1 1      0.0000
    20 N        3.0417  -1.1123  -0.6697   N.pl3     1 1      0.0000
    21 HN       3.3251  -1.9853  -0.2251   H         1 1      0.0000
    22 C        3.3673  -0.9654  -2.0809   C.3       1 1      0.0000
    23 H1A      4.2529  -1.5443  -2.3345   H         1 1      0.0000
    24 H1C      2.5458  -1.3125  -2.7040   H         1 1      0.0000
    25 H1B      3.5615   0.0765  -2.3265   H         1 1      0.0000
    26 H10A    -0.1945   0.2678   1.9267   H         1 1      0.0000
    27 H10B    -1.0109  -1.3017   2.0398   H         1 1      0.0000
    28 H9B      0.1578  -0.0746  -0.4943   H         1 1      0.0000
    29 H5      -5.4027   1.6561  -0.7597   H         1 1      0.0000
    30 H3      -1.8789  -0.1839  -2.3192   H         1 1      0.0000
    31 H12B     2.0858   0.4716   2.0917   H         1 1      0.0000
    32 C15      3.2717   2.2118  -0.0916   C.3       1 1      0.0000
    33 H15A     4.2125   1.8896  -0.5547   H         1 1      0.0000
    34 H15C     3.4340   2.2664   0.9920   H         1 1      0.0000
    35 OH       1.1234  -1.8681   3.1557   O.3       1 1      0.0000
    36 OH1      0.3781  -2.5013   3.3027   H         1 1      0.0000
    37 H22      1.2193  -2.2901   1.1318   H         1 1      0.0000
    38 C16      2.9098   3.5849  -0.6088   C.3       1 1      0.0000
    39 H16C     1.9899   3.9400  -0.1490   H         1 1      0.0000
    40 H16A     3.6982   4.3009  -0.3865   H         1 1      0.0000
    41 H16B     2.7641   3.5649  -1.6868   H         1 1      0.0000
@<TRIPOS>BOND
     1     1     2   ar
     2     1     6   ar
     3     1    29    1
     4     2     3   ar
     5     2     7    1
     6     3     4   ar
     7     3    30    1
     8     4     5   ar
     9     4     8    1
    10     5     6   ar
    11     5     9    1
    12     6    10    1
    13     8    11    1
    14     8    12    1
    15     8    28    1
    16    11    13    1
    17    11    26    1
    18    11    27    1
    19    13    14    1
    20    14    15    1
    21    14    16    1
    22    14    31    1
    23    16    17    1
    24    16    20    2
    25    17    18    1
    26    17    19    1
    27    17    32    1
    28    20    21    1
    29    20    22    1
    30    22    23    1
    31    22    24    1
    32    22    25    1
    33    32    33    1
    34    32    34    1
    35    13    35    1
    36    35    36    1
    37    13    37    1
    38    32    38    1
    39    38    39    1
    40    38    40    1
    41    38    41    1
@<TRIPOS>SUBSTRUCTURE
     1 1           1 GROUP             0 ****  ****    0  
@<TRIPOS>MOLECULE
Molecule Name_00001_00436
    41    41     1     0     0
SMALL
NO_CHARGES
****
Generated from the CSD

@<TRIPOS>ATOM
     1 C5      -4.9053   0.5474  -0.1879   C.ar      1 1      0.0000
     2 C4      -4.4823   1.0445   1.0259   C.ar      1 1      0.0000
     3 C3      -3.1865   0.8156   1.4578   C.ar      1 1      0.0000
     4 C8      -2.2973   0.0880   0.6819   C.ar      1 1      0.0000
     5 C7      -2.7368  -0.4070  -0.5363   C.ar      1 1      0.0000
     6 C6      -4.0324  -0.1786  -0.9691   C.ar      1 1      0.0000
     7 H4      -5.1660   1.6164   1.6446   H         1 1      0.0000
     8 C9      -0.8860  -0.1640   1.1545   C.3       1 1      0.0000
     9 H7      -2.0574  -0.9803  -1.1582   H         1 1      0.0000
    10 H6      -4.3609  -0.5723  -1.9253   H         1 1      0.0000
    11 C10     -0.0468  -0.9478   0.1473   C.3       1 1      0.0000
    12 H9A     -0.3993   0.7991   1.3518   H         1 1      0.0000
    13 C11      0.3612  -0.1782  -1.0986   C.3       1 1      0.0000
    14 C12      1.4264   0.8699  -0.7963   C.3       1 1      0.0000
    15 H12A     1.0588   1.5372  -0.0069   H         1 1      0.0000
    16 C13      2.7281   0.2688  -0.3605   C.2       1 1      0.0000
    17 C14      3.7682   1.1968   0.1915   C.3       1 1      0.0000
    18 H14B     3.7651   2.1209  -0.3996   H         1 1      0.0000
    19 H14A     4.7578   0.7366   0.0811   H         1 1      0.0000
    20 N        2.9339  -1.0302  -0.4468   N.pl3     1 1      0.0000
    21 HN       2.1408  -1.5968  -0.7472   H         1 1      0.0000
    22 C        4.1277  -1.7513  -0.0300   C.3       1 1      0.0000
    23 H1A      3.8683  -2.7323   0.3627   H         1 1      0.0000
    24 H1C      4.8061  -1.8909  -0.8691   H         1 1      0.0000
    25 H1B      4.6582  -1.2047   0.7467   H         1 1      0.0000
    26 H10A     0.8632  -1.2948   0.6522   H         1 1      0.0000
    27 H10B    -0.6160  -1.8325  -0.1634   H         1 1      0.0000
    28 H9B     -0.9209  -0.7201   2.0995   H         1 1      0.0000
    29 H5      -5.9203   0.7268  -0.5268   H         1 1      0.0000
    30 H3      -2.8633   1.2106   2.4153   H         1 1      0.0000
    31 H12B     1.5962   1.4769  -1.6941   H         1 1      0.0000
    32 C15      3.5486   1.5502   1.6509   C.3       1 1      0.0000
    33 H15A     3.5487   0.6299   2.2479   H         1 1      0.0000
    34 H15C     2.5643   2.0213   1.7628   H         1 1      0.0000
    35 OH       0.8711  -1.0983  -2.0678   O.3       1 1      0.0000
    36 OH1      0.1761  -1.7671  -2.2861   H         1 1      0.0000
    37 H22     -0.5258   0.3248  -1.5139   H         1 1      0.0000
    38 C16      4.6096   2.4858   2.1826   C.3       1 1      0.0000
    39 H16C     4.6178   3.4181   1.6219   H         1 1      0.0000
    40 H16A     4.4269   2.7212   3.2290   H         1 1      0.0000
    41 H16B     5.5964   2.0343   2.1041   H         1 1      0.0000
@<TRIPOS>BOND
     1     1     2   ar
     2     1     6   ar
     3     1    29    1
     4     2     3   ar
     5     2     7    1
     6     3     4   ar
     7     3    30    1
     8     4     5   ar
     9     4     8    1
    10     5     6   ar
    11     5     9    1
    12     6    10    1
    13     8    11    1
    14     8    12    1
    15     8    28    1
    16    11    13    1
    17    11    26    1
    18    11    27    1
    19    13    14    1
    20    14    15    1
    21    14    16    1
    22    14    31    1
    23    16    17    1
    24    16    20    2
    25    17    18    1
    26    17    19    1
    27    17    32    1
    28    20    21    1
    29    20    22    1
    30    22    23    1
    31    22    24    1
    32    22    25    1
    33    32    33    1
    34    32    34    1
    35    13    35    1
    36    35    36    1
    37    13    37    1
    38    32    38    1
    39    38    39    1
    40    38    40    1
    41    38    41    1
@<TRIPOS>SUBSTRUCTURE
     1 1           1 GROUP             0 ****  ****    0  
@<TRIPOS>MOLECULE
Molecule Name_00001_00437
    41    41     1     0     0
SMALL
NO_CHARGES
****
Generated from the CSD

@<TRIPOS>ATOM
     1 C5      -5.0002   0.6705  -0.2655   C.ar      1 1      0.0000
     2 C4      -4.7074   0.6462   1.0810   C.ar      1 1      0.0000
     3 C3      -3.4622   0.2226   1.5146   C.ar      1 1      0.0000
     4 C8      -2.4940  -0.1812   0.6081   C.ar      1 1      0.0000
     5 C7      -2.8027  -0.1527  -0.7432   C.ar      1 1      0.0000
     6 C6      -4.0476   0.2707  -1.1778   C.ar      1 1      0.0000
     7 H4      -5.4542   0.9596   1.8030   H         1 1      0.0000
     8 C9      -1.1380  -0.6459   1.0813   C.3       1 1      0.0000
     9 H7      -2.0598  -0.4660  -1.4693   H         1 1      0.0000
    10 H6      -4.2736   0.2878  -2.2389   H         1 1      0.0000
    11 C10     -0.1953  -1.0106  -0.0639   C.3       1 1      0.0000
    12 H9A     -0.6789   0.1489   1.6821   H         1 1      0.0000
    13 C11      0.3357   0.1644  -0.8691   C.3       1 1      0.0000
    14 C12      1.3588   0.9767  -0.0828   C.3       1 1      0.0000
    15 H12A     0.9082   1.3011   0.8633   H         1 1      0.0000
    16 C13      2.6113   0.2082   0.2110   C.2       1 1      0.0000
    17 C14      3.5842   0.8143   1.1774   C.3       1 1      0.0000
    18 H14B     4.1867   0.0117   1.6204   H         1 1      0.0000
    19 H14A     3.0306   1.2999   1.9903   H         1 1      0.0000
    20 N        2.8312  -0.9638  -0.3505   N.pl3     1 1      0.0000
    21 HN       2.0763  -1.3424  -0.9223   H         1 1      0.0000
    22 C        3.9790  -1.8318  -0.1311   C.3       1 1      0.0000
    23 H1A      3.7614  -2.8478  -0.4537   H         1 1      0.0000
    24 H1C      4.8428  -1.4768  -0.6893   H         1 1      0.0000
    25 H1B      4.2460  -1.8607   0.9232   H         1 1      0.0000
    26 H10A     0.6592  -1.5575   0.3534   H         1 1      0.0000
    27 H10B    -0.7250  -1.6865  -0.7465   H         1 1      0.0000
    28 H9B     -1.2678  -1.5214   1.7293   H         1 1      0.0000
    29 H5      -5.9755   1.0025  -0.6056   H         1 1      0.0000
    30 H3      -3.2417   0.2065   2.5768   H         1 1      0.0000
    31 H12B     1.6176   1.8762  -0.6549   H         1 1      0.0000
    32 C15      4.5155   1.8287   0.5400   C.3       1 1      0.0000
    33 H15A     3.9191   2.6336   0.0930   H         1 1      0.0000
    34 H15C     5.0792   1.3430  -0.2661   H         1 1      0.0000
    35 OH       0.9476  -0.3289  -2.0641   O.3       1 1      0.0000
    36 OH1      0.2822  -0.8368  -2.5906   H         1 1      0.0000
    37 H22     -0.5060   0.8198  -1.1417   H         1 1      0.0000
    38 C16      5.4853   2.4243   1.5342   C.3       1 1      0.0000
    39 H16C     6.1066   1.6494   1.9785   H         1 1      0.0000
    40 H16A     6.1391   3.1467   1.0500   H         1 1      0.0000
    41 H16B     4.9529   2.9326   2.3353   H         1 1      0.0000
@<TRIPOS>BOND
     1     1     2   ar
     2     1     6   ar
     3     1    29    1
     4     2     3   ar
     5     2     7    1
     6     3     4   ar
     7     3    30    1
     8     4     5   ar
     9     4     8    1
    10     5     6   ar
    11     5     9    1
    12     6    10    1
    13     8    11    1
    14     8    12    1
    15     8    28    1
    16    11    13    1
    17    11    26    1
    18    11    27    1
    19    13    14    1
    20    14    15    1
    21    14    16    1
    22    14    31    1
    23    16    17    1
    24    16    20    2
    25    17    18    1
    26    17    19    1
    27    17    32    1
    28    20    21    1
    29    20    22    1
    30    22    23    1
    31    22    24    1
    32    22    25    1
    33    32    33    1
    34    32    34    1
    35    13    35    1
    36    35    36    1
    37    13    37    1
    38    32    38    1
    39    38    39    1
    40    38    40    1
    41    38    41    1
@<TRIPOS>SUBSTRUCTURE
     1 1           1 GROUP             0 ****  ****    0  
@<TRIPOS>MOLECULE
Molecule Name_00001_00438
    41    41     1     0     0
SMALL
NO_CHARGES
****
Generated from the CSD

@<TRIPOS>ATOM
     1 C5      -5.6443   0.2918  -0.3102   C.ar      1 1      0.0000
     2 C4      -5.0873  -0.9597  -0.4614   C.ar      1 1      0.0000
     3 C3      -3.7618  -1.1765  -0.1236   C.ar      1 1      0.0000
     4 C8      -2.9770  -0.1458   0.3702   C.ar      1 1      0.0000
     5 C7      -3.5501   1.1081   0.5160   C.ar      1 1      0.0000
     6 C6      -4.8755   1.3260   0.1785   C.ar      1 1      0.0000
     7 H4      -5.6885  -1.7769  -0.8460   H         1 1      0.0000
     8 C9      -1.5313  -0.3818   0.7353   C.3       1 1      0.0000
     9 H7      -2.9530   1.9289   0.8993   H         1 1      0.0000
    10 H6      -5.3095   2.3130   0.2990   H         1 1      0.0000
    11 C10     -0.5573   0.4332  -0.1133   C.3       1 1      0.0000
    12 H9A     -1.3846  -0.1259   1.7919   H         1 1      0.0000
    13 C11      0.9141   0.2337   0.2125   C.3       1 1      0.0000
    14 C12      1.7980   0.4123  -1.0170   C.3       1 1      0.0000
    15 H12A     1.7198   1.4489  -1.3672   H         1 1      0.0000
    16 C13      3.2379   0.0943  -0.7505   C.2       1 1      0.0000
    17 C14      4.0228   1.0744   0.0687   C.3       1 1      0.0000
    18 H14B     3.4276   1.9878   0.1904   H         1 1      0.0000
    19 H14A     4.9381   1.3453  -0.4716   H         1 1      0.0000
    20 N        3.7795  -1.0167  -1.2085   N.pl3     1 1      0.0000
    21 HN       3.1508  -1.6691  -1.6767   H         1 1      0.0000
    22 C        5.1469  -1.4691  -0.9974   C.3       1 1      0.0000
    23 H1A      5.1927  -2.1930  -0.1864   H         1 1      0.0000
    24 H1C      5.5395  -1.9414  -1.8955   H         1 1      0.0000
    25 H1B      5.7957  -0.6337  -0.7431   H         1 1      0.0000
    26 H10A    -0.7161   0.1726  -1.1670   H         1 1      0.0000
    27 H10B    -0.7977   1.4965   0.0090   H         1 1      0.0000
    28 H9B     -1.3033  -1.4481   0.6154   H         1 1      0.0000
    29 H5      -6.6828   0.4620  -0.5745   H         1 1      0.0000
    30 H3      -3.3323  -2.1652  -0.2468   H         1 1      0.0000
    31 H12B     1.4308  -0.2396  -1.8193   H         1 1      0.0000
    32 C15      4.3977   0.5495   1.4422   C.3       1 1      0.0000
    33 H15A     4.9924  -0.3651   1.3278   H         1 1      0.0000
    34 H15C     3.4836   0.2878   1.9893   H         1 1      0.0000
    35 OH       1.3025   1.1820   1.2104   O.3       1 1      0.0000
    36 OH1      0.7486   1.0555   2.0198   H         1 1      0.0000
    37 H22      1.0572  -0.7832   0.6094   H         1 1      0.0000
    38 C16      5.1866   1.5560   2.2475   C.3       1 1      0.0000
    39 H16C     4.6113   2.4675   2.3957   H         1 1      0.0000
    40 H16A     5.4411   1.1530   3.2256   H         1 1      0.0000
    41 H16B     6.1114   1.8180   1.7378   H         1 1      0.0000
@<TRIPOS>BOND
     1     1     2   ar
     2     1     6   ar
     3     1    29    1
     4     2     3   ar
     5     2     7    1
     6     3     4   ar
     7     3    30    1
     8     4     5   ar
     9     4     8    1
    10     5     6   ar
    11     5     9    1
    12     6    10    1
    13     8    11    1
    14     8    12    1
    15     8    28    1
    16    11    13    1
    17    11    26    1
    18    11    27    1
    19    13    14    1
    20    14    15    1
    21    14    16    1
    22    14    31    1
    23    16    17    1
    24    16    20    2
    25    17    18    1
    26    17    19    1
    27    17    32    1
    28    20    21    1
    29    20    22    1
    30    22    23    1
    31    22    24    1
    32    22    25    1
    33    32    33    1
    34    32    34    1
    35    13    35    1
    36    35    36    1
    37    13    37    1
    38    32    38    1
    39    38    39    1
    40    38    40    1
    41    38    41    1
@<TRIPOS>SUBSTRUCTURE
     1 1           1 GROUP             0 ****  ****    0  
@<TRIPOS>MOLECULE
Molecule Name_00001_00439
    41    41     1     0     0
SMALL
NO_CHARGES
****
Generated from the CSD

@<TRIPOS>ATOM
     1 C5      -4.4223   1.4921   0.0423   C.ar      1 1      0.0000
     2 C4      -3.9369   0.7794  -1.0328   C.ar      1 1      0.0000
     3 C3      -2.9704  -0.1941  -0.8427   C.ar      1 1      0.0000
     4 C8      -2.4777  -0.4680   0.4240   C.ar      1 1      0.0000
     5 C7      -2.9742   0.2575   1.4960   C.ar      1 1      0.0000
     6 C6      -3.9407   1.2312   1.3070   C.ar      1 1      0.0000
     7 H4      -4.3127   0.9815  -2.0303   H         1 1      0.0000
     8 C9      -1.4219  -1.5270   0.6303   C.3       1 1      0.0000
     9 H7      -2.6010   0.0599   2.4955   H         1 1      0.0000
    10 H6      -4.3195   1.7899   2.1564   H         1 1      0.0000
    11 C10      0.0010  -0.9945   0.4732   C.3       1 1      0.0000
    12 H9A     -1.5352  -1.9516   1.6354   H         1 1      0.0000
    13 C11      0.4000  -0.6114  -0.9428   C.3       1 1      0.0000
    14 C12      1.3843   0.5529  -0.9609   C.3       1 1      0.0000
    15 H12A     0.9414   1.4051  -0.4308   H         1 1      0.0000
    16 C13      2.6994   0.2139  -0.3275   C.2       1 1      0.0000
    17 C14      3.6414   1.3446  -0.0413   C.3       1 1      0.0000
    18 H14B     3.6056   2.0531  -0.8781   H         1 1      0.0000
    19 H14A     4.6650   0.9553   0.0192   H         1 1      0.0000
    20 N        2.9994  -1.0325  -0.0211   N.pl3     1 1      0.0000
    21 HN       2.2650  -1.7252  -0.1657   H         1 1      0.0000
    22 C        4.2165  -1.5003   0.6261   C.3       1 1      0.0000
    23 H1A      4.0053  -2.3423   1.2820   H         1 1      0.0000
    24 H1C      4.9470  -1.8218  -0.1133   H         1 1      0.0000
    25 H1B      4.6652  -0.7095   1.2235   H         1 1      0.0000
    26 H10A     0.1116  -0.1110   1.1141   H         1 1      0.0000
    27 H10B     0.6990  -1.7600   0.8342   H         1 1      0.0000
    28 H9B     -1.5824  -2.3356  -0.0936   H         1 1      0.0000
    29 H5      -5.1796   2.2548  -0.1061   H         1 1      0.0000
    30 H3      -2.5943  -0.7493  -1.6956   H         1 1      0.0000
    31 H12B     1.5569   0.8595  -2.0000   H         1 1      0.0000
    32 C15      3.3197   2.0883   1.2418   C.3       1 1      0.0000
    33 H15A     3.3518   1.3849   2.0830   H         1 1      0.0000
    34 H15C     2.3004   2.4889   1.1796   H         1 1      0.0000
    35 OH       1.0008  -1.7427  -1.5792   O.3       1 1      0.0000
    36 OH1      0.3583  -2.4944  -1.5920   H         1 1      0.0000
    37 H22     -0.5032  -0.3230  -1.5025   H         1 1      0.0000
    38 C16      4.2830   3.2221   1.5070   C.3       1 1      0.0000
    39 H16C     4.2564   3.9482   0.6972   H         1 1      0.0000
    40 H16A     4.0285   3.7361   2.4316   H         1 1      0.0000
    41 H16B     5.3016   2.8501   1.5954   H         1 1      0.0000
@<TRIPOS>BOND
     1     1     2   ar
     2     1     6   ar
     3     1    29    1
     4     2     3   ar
     5     2     7    1
     6     3     4   ar
     7     3    30    1
     8     4     5   ar
     9     4     8    1
    10     5     6   ar
    11     5     9    1
    12     6    10    1
    13     8    11    1
    14     8    12    1
    15     8    28    1
    16    11    13    1
    17    11    26    1
    18    11    27    1
    19    13    14    1
    20    14    15    1
    21    14    16    1
    22    14    31    1
    23    16    17    1
    24    16    20    2
    25    17    18    1
    26    17    19    1
    27    17    32    1
    28    20    21    1
    29    20    22    1
    30    22    23    1
    31    22    24    1
    32    22    25    1
    33    32    33    1
    34    32    34    1
    35    13    35    1
    36    35    36    1
    37    13    37    1
    38    32    38    1
    39    38    39    1
    40    38    40    1
    41    38    41    1
@<TRIPOS>SUBSTRUCTURE
     1 1           1 GROUP             0 ****  ****    0  
@<TRIPOS>MOLECULE
Molecule Name_00001_00440
    41    41     1     0     0
SMALL
NO_CHARGES
****
Generated from the CSD

@<TRIPOS>ATOM
     1 C5      -4.5771  -1.0624  -0.3598   C.ar      1 1      0.0000
     2 C4      -4.0324  -1.2459   0.8928   C.ar      1 1      0.0000
     3 C3      -3.0233  -0.4103   1.3417   C.ar      1 1      0.0000
     4 C8      -2.5465   0.6192   0.5449   C.ar      1 1      0.0000
     5 C7      -3.1028   0.7913  -0.7133   C.ar      1 1      0.0000
     6 C6      -4.1120  -0.0437  -1.1631   C.ar      1 1      0.0000
     7 H4      -4.3950  -2.0467   1.5287   H         1 1      0.0000
     8 C9      -1.4443   1.5276   1.0333   C.3       1 1      0.0000
     9 H7      -2.7430   1.5900  -1.3535   H         1 1      0.0000
    10 H6      -4.5374   0.1044  -2.1502   H         1 1      0.0000
    11 C10     -0.0464   0.9812   0.7497   C.3       1 1      0.0000
    12 H9A     -1.5496   2.5068   0.5500   H         1 1      0.0000
    13 C11      0.3579   0.9566  -0.7155   C.3       1 1      0.0000
    14 C12      1.8505   1.2086  -0.8979   C.3       1 1      0.0000
    15 H12A     2.1117   2.1672  -0.4327   H         1 1      0.0000
    16 C13      2.7009   0.1286  -0.3011   C.2       1 1      0.0000
    17 C14      4.1712   0.3944  -0.1779   C.3       1 1      0.0000
    18 H14B     4.5106   0.9206  -1.0786   H         1 1      0.0000
    19 H14A     4.7081  -0.5608  -0.1304   H         1 1      0.0000
    20 N        2.1638  -1.0016   0.1132   N.pl3     1 1      0.0000
    21 HN       1.1464  -1.0614   0.0762   H         1 1      0.0000
    22 C        2.8586  -2.1158   0.7417   C.3       1 1      0.0000
    23 H1A      2.2269  -2.5922   1.4885   H         1 1      0.0000
    24 H1C      3.1329  -2.8652   0.0022   H         1 1      0.0000
    25 H1B      3.7679  -1.7767   1.2332   H         1 1      0.0000
    26 H10A     0.6809   1.5924   1.2983   H         1 1      0.0000
    27 H10B     0.0116  -0.0416   1.1418   H         1 1      0.0000
    28 H9B     -1.5573   1.6752   2.1144   H         1 1      0.0000
    29 H5      -5.3679  -1.7166  -0.7117   H         1 1      0.0000
    30 H3      -2.6006  -0.5633   2.3292   H         1 1      0.0000
    31 H12B     2.0720   1.2863  -1.9695   H         1 1      0.0000
    32 C15      4.5346   1.2254   1.0388   C.3       1 1      0.0000
    33 H15A     4.1961   0.7057   1.9436   H         1 1      0.0000
    34 H15C     4.0080   2.1865   0.9885   H         1 1      0.0000
    35 OH       0.0275  -0.3207  -1.2680   O.3       1 1      0.0000
    36 OH1     -0.9184  -0.5314  -1.0707   H         1 1      0.0000
    37 H22     -0.2033   1.7359  -1.2539   H         1 1      0.0000
    38 C16      6.0209   1.4790   1.1398   C.3       1 1      0.0000
    39 H16C     6.3814   2.0138   0.2636   H         1 1      0.0000
    40 H16A     6.2514   2.0758   2.0198   H         1 1      0.0000
    41 H16B     6.5680   0.5414   1.2133   H         1 1      0.0000
@<TRIPOS>BOND
     1     1     2   ar
     2     1     6   ar
     3     1    29    1
     4     2     3   ar
     5     2     7    1
     6     3     4   ar
     7     3    30    1
     8     4     5   ar
     9     4     8    1
    10     5     6   ar
    11     5     9    1
    12     6    10    1
    13     8    11    1
    14     8    12    1
    15     8    28    1
    16    11    13    1
    17    11    26    1
    18    11    27    1
    19    13    14    1
    20    14    15    1
    21    14    16    1
    22    14    31    1
    23    16    17    1
    24    16    20    2
    25    17    18    1
    26    17    19    1
    27    17    32    1
    28    20    21    1
    29    20    22    1
    30    22    23    1
    31    22    24    1
    32    22    25    1
    33    32    33    1
    34    32    34    1
    35    13    35    1
    36    35    36    1
    37    13    37    1
    38    32    38    1
    39    38    39    1
    40    38    40    1
    41    38    41    1
@<TRIPOS>SUBSTRUCTURE
     1 1           1 GROUP             0 ****  ****    0  
@<TRIPOS>MOLECULE
Molecule Name_00001_00441
    41    41     1     0     0
SMALL
NO_CHARGES
****
Generated from the CSD

@<TRIPOS>ATOM
     1 C5      -4.5846   0.6234  -1.0928   C.ar      1 1      0.0000
     2 C4      -4.0642  -0.6136  -1.4063   C.ar      1 1      0.0000
     3 C3      -3.0906  -1.1827  -0.6024   C.ar      1 1      0.0000
     4 C8      -2.6256  -0.5231   0.5249   C.ar      1 1      0.0000
     5 C7      -3.1571   0.7211   0.8275   C.ar      1 1      0.0000
     6 C6      -4.1308   1.2910   0.0242   C.ar      1 1      0.0000
     7 H4      -4.4181  -1.1429  -2.2848   H         1 1      0.0000
     8 C9      -1.5620  -1.1423   1.3991   C.3       1 1      0.0000
     9 H7      -2.8060   1.2549   1.7044   H         1 1      0.0000
    10 H6      -4.5372   2.2653   0.2749   H         1 1      0.0000
    11 C10     -0.1426  -0.8347   0.9263   C.3       1 1      0.0000
    12 H9A     -1.6845  -0.7727   2.4247   H         1 1      0.0000
    13 C11      0.2964   0.6123   1.0827   C.3       1 1      0.0000
    14 C12      1.7849   0.7246   1.3933   C.3       1 1      0.0000
    15 H12A     2.0071   0.1450   2.2978   H         1 1      0.0000
    16 C13      2.6522   0.2342   0.2740   C.2       1 1      0.0000
    17 C14      4.1109   0.0421   0.5621   C.3       1 1      0.0000
    18 H14B     4.5153  -0.6940  -0.1436   H         1 1      0.0000
    19 H14A     4.2284  -0.3685   1.5724   H         1 1      0.0000
    20 N        2.1388  -0.0323  -0.9104   N.pl3     1 1      0.0000
    21 HN       1.1246   0.0384  -0.9923   H         1 1      0.0000
    22 C        2.8508  -0.5460  -2.0715   C.3       1 1      0.0000
    23 H1A      2.1531  -0.9268  -2.8144   H         1 1      0.0000
    24 H1C      3.4460   0.2374  -2.5361   H         1 1      0.0000
    25 H1B      3.5195  -1.3559  -1.7879   H         1 1      0.0000
    26 H10A     0.5536  -1.4694   1.4884   H         1 1      0.0000
    27 H10B    -0.0640  -1.1074  -0.1334   H         1 1      0.0000
    28 H9B     -1.7045  -2.2298   1.4170   H         1 1      0.0000
    29 H5      -5.3476   1.0695  -1.7222   H         1 1      0.0000
    30 H3      -2.6868  -2.1568  -0.8580   H         1 1      0.0000
    31 H12B     2.0290   1.7738   1.6009   H         1 1      0.0000
    32 C15      4.9214   1.3203   0.4519   C.3       1 1      0.0000
    33 H15A     4.5209   2.0620   1.1539   H         1 1      0.0000
    34 H15C     4.8153   1.7275  -0.5612   H         1 1      0.0000
    35 OH       0.0163   1.3173  -0.1299   O.3       1 1      0.0000
    36 OH1     -0.9273   1.1706  -0.3870   H         1 1      0.0000
    37 H22     -0.2746   1.0717   1.9044   H         1 1      0.0000
    38 C16      6.3871   1.0998   0.7468   C.3       1 1      0.0000
    39 H16C     6.8171   0.3832   0.0502   H         1 1      0.0000
    40 H16A     6.9422   2.0315   0.6604   H         1 1      0.0000
    41 H16B     6.5240   0.7159   1.7556   H         1 1      0.0000
@<TRIPOS>BOND
     1     1     2   ar
     2     1     6   ar
     3     1    29    1
     4     2     3   ar
     5     2     7    1
     6     3     4   ar
     7     3    30    1
     8     4     5   ar
     9     4     8    1
    10     5     6   ar
    11     5     9    1
    12     6    10    1
    13     8    11    1
    14     8    12    1
    15     8    28    1
    16    11    13    1
    17    11    26    1
    18    11    27    1
    19    13    14    1
    20    14    15    1
    21    14    16    1
    22    14    31    1
    23    16    17    1
    24    16    20    2
    25    17    18    1
    26    17    19    1
    27    17    32    1
    28    20    21    1
    29    20    22    1
    30    22    23    1
    31    22    24    1
    32    22    25    1
    33    32    33    1
    34    32    34    1
    35    13    35    1
    36    35    36    1
    37    13    37    1
    38    32    38    1
    39    38    39    1
    40    38    40    1
    41    38    41    1
@<TRIPOS>SUBSTRUCTURE
     1 1           1 GROUP             0 ****  ****    0  
@<TRIPOS>MOLECULE
Molecule Name_00001_00442
    41    41     1     0     0
SMALL
NO_CHARGES
****
Generated from the CSD

@<TRIPOS>ATOM
     1 C5      -5.5075   0.7227  -0.0539   C.ar      1 1      0.0000
     2 C4      -4.5910   0.9759  -1.0515   C.ar      1 1      0.0000
     3 C3      -3.2496   0.6956  -0.8512   C.ar      1 1      0.0000
     4 C8      -2.8077   0.1582   0.3479   C.ar      1 1      0.0000
     5 C7      -3.7405  -0.0902   1.3431   C.ar      1 1      0.0000
     6 C6      -5.0821   0.1897   1.1438   C.ar      1 1      0.0000
     7 H4      -4.9211   1.3957  -1.9960   H         1 1      0.0000
     8 C9      -1.3450  -0.1442   0.5670   C.3       1 1      0.0000
     9 H7      -3.4154  -0.5091   2.2897   H         1 1      0.0000
    10 H6      -5.7999  -0.0110   1.9323   H         1 1      0.0000
    11 C10     -0.6265  -0.5870  -0.7060   C.3       1 1      0.0000
    12 H9A     -0.8514   0.7524   0.9619   H         1 1      0.0000
    13 C11      0.8470  -0.9216  -0.5389   C.3       1 1      0.0000
    14 C12      1.6581   0.2899  -0.0927   C.3       1 1      0.0000
    15 H12A     1.3361   0.5862   0.9132   H         1 1      0.0000
    16 C13      3.1337   0.0289  -0.0758   C.2       1 1      0.0000
    17 C14      4.0444   1.1877  -0.3507   C.3       1 1      0.0000
    18 H14B     3.6074   1.7967  -1.1516   H         1 1      0.0000
    19 H14A     5.0096   0.8110  -0.7104   H         1 1      0.0000
    20 N        3.6032  -1.1738   0.1894   N.pl3     1 1      0.0000
    21 HN       2.9176  -1.8808   0.4547   H         1 1      0.0000
    22 C        5.0037  -1.5615   0.2748   C.3       1 1      0.0000
    23 H1A      5.1468  -2.3245   1.0372   H         1 1      0.0000
    24 H1C      5.3512  -1.9624  -0.6750   H         1 1      0.0000
    25 H1B      5.6266  -0.7068   0.5296   H         1 1      0.0000
    26 H10A    -1.1391  -1.4727  -1.1013   H         1 1      0.0000
    27 H10B    -0.7172   0.2132  -1.4509   H         1 1      0.0000
    28 H9B     -1.2541  -0.9350   1.3218   H         1 1      0.0000
    29 H5      -6.5585   0.9419  -0.2105   H         1 1      0.0000
    30 H3      -2.5358   0.8990  -1.6426   H         1 1      0.0000
    31 H12B     1.4514   1.1279  -0.7697   H         1 1      0.0000
    32 C15      4.2800   2.0708   0.8607   C.3       1 1      0.0000
    33 H15A     4.7153   1.4673   1.6667   H         1 1      0.0000
    34 H15C     3.3173   2.4587   1.2160   H         1 1      0.0000
    35 OH       0.9808  -1.9598   0.4359   O.3       1 1      0.0000
    36 OH1      0.4761  -2.7573   0.1405   H         1 1      0.0000
    37 H22      1.2429  -1.2806  -1.5015   H         1 1      0.0000
    38 C16      5.2004   3.2304   0.5575   C.3       1 1      0.0000
    39 H16C     4.7826   3.8600  -0.2252   H         1 1      0.0000
    40 H16A     5.3509   3.8450   1.4426   H         1 1      0.0000
    41 H16B     6.1724   2.8740   0.2230   H         1 1      0.0000
@<TRIPOS>BOND
     1     1     2   ar
     2     1     6   ar
     3     1    29    1
     4     2     3   ar
     5     2     7    1
     6     3     4   ar
     7     3    30    1
     8     4     5   ar
     9     4     8    1
    10     5     6   ar
    11     5     9    1
    12     6    10    1
    13     8    11    1
    14     8    12    1
    15     8    28    1
    16    11    13    1
    17    11    26    1
    18    11    27    1
    19    13    14    1
    20    14    15    1
    21    14    16    1
    22    14    31    1
    23    16    17    1
    24    16    20    2
    25    17    18    1
    26    17    19    1
    27    17    32    1
    28    20    21    1
    29    20    22    1
    30    22    23    1
    31    22    24    1
    32    22    25    1
    33    32    33    1
    34    32    34    1
    35    13    35    1
    36    35    36    1
    37    13    37    1
    38    32    38    1
    39    38    39    1
    40    38    40    1
    41    38    41    1
@<TRIPOS>SUBSTRUCTURE
     1 1           1 GROUP             0 ****  ****    0  
@<TRIPOS>MOLECULE
Molecule Name_00001_00443
    41    41     1     0     0
SMALL
NO_CHARGES
****
Generated from the CSD

@<TRIPOS>ATOM
     1 C5      -5.5050   0.7769  -0.0306   C.ar      1 1      0.0000
     2 C4      -4.5048   1.4184  -0.7286   C.ar      1 1      0.0000
     3 C3      -3.1819   1.0543  -0.5409   C.ar      1 1      0.0000
     4 C8      -2.8422   0.0442   0.3460   C.ar      1 1      0.0000
     5 C7      -3.8586  -0.5916   1.0423   C.ar      1 1      0.0000
     6 C6      -5.1818  -0.2282   0.8552   C.ar      1 1      0.0000
     7 H4      -4.7543   2.2106  -1.4268   H         1 1      0.0000
     8 C9      -1.3998  -0.3501   0.5528   C.3       1 1      0.0000
     9 H7      -3.6143  -1.3837   1.7423   H         1 1      0.0000
    10 H6      -5.9658  -0.7360   1.4073   H         1 1      0.0000
    11 C10     -0.5533  -0.2139  -0.7113   C.3       1 1      0.0000
    12 H9A     -0.9682   0.2792   1.3408   H         1 1      0.0000
    13 C11      0.9056  -0.6152  -0.5641   C.3       1 1      0.0000
    14 C12      1.6406   0.2702   0.4362   C.3       1 1      0.0000
    15 H12A     1.2175   0.1097   1.4356   H         1 1      0.0000
    16 C13      3.1139   0.0002   0.4806   C.2       1 1      0.0000
    17 C14      4.0176   1.1471   0.8209   C.3       1 1      0.0000
    18 H14B     4.9512   0.7484   1.2367   H         1 1      0.0000
    19 H14A     3.5450   1.7611   1.5973   H         1 1      0.0000
    20 N        3.5859  -1.2079   0.2454   N.pl3     1 1      0.0000
    21 HN       2.8960  -1.9473   0.1130   H         1 1      0.0000
    22 C        4.9812  -1.6204   0.2896   C.3       1 1      0.0000
    23 H1A      5.0798  -2.6745   0.0387   H         1 1      0.0000
    24 H1C      5.5752  -1.0466  -0.4187   H         1 1      0.0000
    25 H1B      5.3983  -1.4679   1.2827   H         1 1      0.0000
    26 H10A    -1.0041  -0.8329  -1.4969   H         1 1      0.0000
    27 H10B    -0.5929   0.8308  -1.0436   H         1 1      0.0000
    28 H9B     -1.3612  -1.3907   0.8979   H         1 1      0.0000
    29 H5      -6.5416   1.0617  -0.1776   H         1 1      0.0000
    30 H3      -2.4016   1.5659  -1.0947   H         1 1      0.0000
    31 H12B     1.4782   1.3220   0.1700   H         1 1      0.0000
    32 C15      4.3502   2.0273  -0.3697   C.3       1 1      0.0000
    33 H15A     3.4204   2.4279  -0.7918   H         1 1      0.0000
    34 H15C     4.8336   1.4183  -1.1435   H         1 1      0.0000
    35 OH       0.9722  -1.9745  -0.1240   O.3       1 1      0.0000
    36 OH1      0.5177  -2.5572  -0.7811   H         1 1      0.0000
    37 H22      1.3996  -0.5312  -1.5444   H         1 1      0.0000
    38 C16      5.2615   3.1748  -0.0004   C.3       1 1      0.0000
    39 H16C     6.2027   2.8059   0.4018   H         1 1      0.0000
    40 H16A     5.4824   3.7877  -0.8718   H         1 1      0.0000
    41 H16B     4.7972   3.8095   0.7514   H         1 1      0.0000
@<TRIPOS>BOND
     1     1     2   ar
     2     1     6   ar
     3     1    29    1
     4     2     3   ar
     5     2     7    1
     6     3     4   ar
     7     3    30    1
     8     4     5   ar
     9     4     8    1
    10     5     6   ar
    11     5     9    1
    12     6    10    1
    13     8    11    1
    14     8    12    1
    15     8    28    1
    16    11    13    1
    17    11    26    1
    18    11    27    1
    19    13    14    1
    20    14    15    1
    21    14    16    1
    22    14    31    1
    23    16    17    1
    24    16    20    2
    25    17    18    1
    26    17    19    1
    27    17    32    1
    28    20    21    1
    29    20    22    1
    30    22    23    1
    31    22    24    1
    32    22    25    1
    33    32    33    1
    34    32    34    1
    35    13    35    1
    36    35    36    1
    37    13    37    1
    38    32    38    1
    39    38    39    1
    40    38    40    1
    41    38    41    1
@<TRIPOS>SUBSTRUCTURE
     1 1           1 GROUP             0 ****  ****    0  
@<TRIPOS>MOLECULE
Molecule Name_00001_00444
    41    41     1     0     0
SMALL
NO_CHARGES
****
Generated from the CSD

@<TRIPOS>ATOM
     1 C5      -5.4293   1.0022  -0.1455   C.ar      1 1      0.0000
     2 C4      -4.6107   1.1016  -1.2498   C.ar      1 1      0.0000
     3 C3      -3.3712   0.4841  -1.2547   C.ar      1 1      0.0000
     4 C8      -2.9346  -0.2411  -0.1567   C.ar      1 1      0.0000
     5 C7      -3.7679  -0.3317   0.9477   C.ar      1 1      0.0000
     6 C6      -5.0076   0.2855   0.9535   C.ar      1 1      0.0000
     7 H4      -4.9382   1.6651  -2.1173   H         1 1      0.0000
     8 C9      -1.5820  -0.9114  -0.1612   C.3       1 1      0.0000
     9 H7      -3.4447  -0.8932   1.8181   H         1 1      0.0000
    10 H6      -5.6484   0.2046   1.8254   H         1 1      0.0000
    11 C10     -0.6365  -0.3621   0.9053   C.3       1 1      0.0000
    12 H9A     -1.7175  -1.9877   0.0022   H         1 1      0.0000
    13 C11      0.8279  -0.7301   0.7287   C.3       1 1      0.0000
    14 C12      1.6388   0.4249   0.1514   C.3       1 1      0.0000
    15 H12A     1.6302   1.2598   0.8629   H         1 1      0.0000
    16 C13      3.0592   0.0493  -0.1436   C.2       1 1      0.0000
    17 C14      3.9552   1.1147  -0.7002   C.3       1 1      0.0000
    18 H14B     3.3865   1.7096  -1.4255   H         1 1      0.0000
    19 H14A     4.7863   0.6427  -1.2383   H         1 1      0.0000
    20 N        3.4988  -1.1697   0.0976   N.pl3     1 1      0.0000
    21 HN       2.8483  -1.8038   0.5611   H         1 1      0.0000
    22 C        4.8539  -1.6615  -0.1046   C.3       1 1      0.0000
    23 H1A      5.1184  -2.3885   0.6604   H         1 1      0.0000
    24 H1C      4.9483  -2.1423  -1.0760   H         1 1      0.0000
    25 H1B      5.5721  -0.8456  -0.0597   H         1 1      0.0000
    26 H10A    -0.7195   0.7318   0.9098   H         1 1      0.0000
    27 H10B    -0.9694  -0.7277   1.8845   H         1 1      0.0000
    28 H9B     -1.1223  -0.7789  -1.1483   H         1 1      0.0000
    29 H5      -6.4006   1.4856  -0.1414   H         1 1      0.0000
    30 H3      -2.7338   0.5688  -2.1287   H         1 1      0.0000
    31 H12B     1.1611   0.7701  -0.7739   H         1 1      0.0000
    32 C15      4.5179   2.0443   0.3591   C.3       1 1      0.0000
    33 H15A     5.0865   1.4553   1.0893   H         1 1      0.0000
    34 H15C     3.6890   2.5268   0.8915   H         1 1      0.0000
    35 OH       1.3725  -1.0955   1.9998   O.3       1 1      0.0000
    36 OH1      0.8656  -1.8602   2.3689   H         1 1      0.0000
    37 H22      0.8998  -1.5916   0.0469   H         1 1      0.0000
    38 C16      5.4169   3.1081  -0.2273   C.3       1 1      0.0000
    39 H16C     4.8723   3.7230  -0.9407   H         1 1      0.0000
    40 H16A     5.8051   3.7584   0.5538   H         1 1      0.0000
    41 H16B     6.2617   2.6573  -0.7438   H         1 1      0.0000
@<TRIPOS>BOND
     1     1     2   ar
     2     1     6   ar
     3     1    29    1
     4     2     3   ar
     5     2     7    1
     6     3     4   ar
     7     3    30    1
     8     4     5   ar
     9     4     8    1
    10     5     6   ar
    11     5     9    1
    12     6    10    1
    13     8    11    1
    14     8    12    1
    15     8    28    1
    16    11    13    1
    17    11    26    1
    18    11    27    1
    19    13    14    1
    20    14    15    1
    21    14    16    1
    22    14    31    1
    23    16    17    1
    24    16    20    2
    25    17    18    1
    26    17    19    1
    27    17    32    1
    28    20    21    1
    29    20    22    1
    30    22    23    1
    31    22    24    1
    32    22    25    1
    33    32    33    1
    34    32    34    1
    35    13    35    1
    36    35    36    1
    37    13    37    1
    38    32    38    1
    39    38    39    1
    40    38    40    1
    41    38    41    1
@<TRIPOS>SUBSTRUCTURE
     1 1           1 GROUP             0 ****  ****    0  
@<TRIPOS>MOLECULE
Molecule Name_00001_00445
    41    41     1     0     0
SMALL
NO_CHARGES
****
Generated from the CSD

@<TRIPOS>ATOM
     1 C5      -5.3510   1.0749   0.0284   C.ar      1 1      0.0000
     2 C4      -4.4426   1.5939  -0.8688   C.ar      1 1      0.0000
     3 C3      -3.1935   1.0125  -1.0089   C.ar      1 1      0.0000
     4 C8      -2.8370  -0.0950  -0.2549   C.ar      1 1      0.0000
     5 C7      -3.7602  -0.6056   0.6446   C.ar      1 1      0.0000
     6 C6      -5.0095  -0.0250   0.7854   C.ar      1 1      0.0000
     7 H4      -4.7067   2.4599  -1.4667   H         1 1      0.0000
     8 C9      -1.4741  -0.7264  -0.4056   C.3       1 1      0.0000
     9 H7      -3.5006  -1.4709   1.2456   H         1 1      0.0000
    10 H6      -5.7212  -0.4369   1.4933   H         1 1      0.0000
    11 C10     -0.6369  -0.6586   0.8702   C.3       1 1      0.0000
    12 H9A     -1.5986  -1.7771  -0.6954   H         1 1      0.0000
    13 C11      0.8453  -0.9458   0.6921   C.3       1 1      0.0000
    14 C12      1.6764   0.3325   0.6945   C.3       1 1      0.0000
    15 H12A     1.5874   0.8161   1.6751   H         1 1      0.0000
    16 C13      3.1251   0.0860   0.4013   C.2       1 1      0.0000
    17 C14      4.0414   1.2727   0.3947   C.3       1 1      0.0000
    18 H14B     5.0622   0.9305   0.6051   H         1 1      0.0000
    19 H14A     3.7497   1.9585   1.1995   H         1 1      0.0000
    20 N        3.5700  -1.1343   0.1767   N.pl3     1 1      0.0000
    21 HN       2.8965  -1.8916   0.2912   H         1 1      0.0000
    22 C        4.9483  -1.5235  -0.0836   C.3       1 1      0.0000
    23 H1A      5.0838  -2.5914   0.0741   H         1 1      0.0000
    24 H1C      5.2259  -1.2948  -1.1104   H         1 1      0.0000
    25 H1B      5.6311  -0.9939   0.5775   H         1 1      0.0000
    26 H10A    -0.7450   0.3444   1.3010   H         1 1      0.0000
    27 H10B    -1.0446  -1.3786   1.5905   H         1 1      0.0000
    28 H9B     -0.9340  -0.2188  -1.2143   H         1 1      0.0000
    29 H5      -6.3298   1.5299   0.1383   H         1 1      0.0000
    30 H3      -2.4852   1.4288  -1.7176   H         1 1      0.0000
    31 H12B     1.2727   1.0232  -0.0560   H         1 1      0.0000
    32 C15      4.0413   2.0281  -0.9214   C.3       1 1      0.0000
    33 H15A     3.0224   2.3716  -1.1389   H         1 1      0.0000
    34 H15C     4.3439   1.3476  -1.7269   H         1 1      0.0000
    35 OH       1.2863  -1.7933   1.7565   O.3       1 1      0.0000
    36 OH1      0.7670  -2.6349   1.7456   H         1 1      0.0000
    37 H22      0.9954  -1.4665  -0.2663   H         1 1      0.0000
    38 C16      4.9720   3.2185  -0.9020   C.3       1 1      0.0000
    39 H16C     5.9957   2.9046  -0.7095   H         1 1      0.0000
    40 H16A     4.9512   3.7399  -1.8566   H         1 1      0.0000
    41 H16B     4.6815   3.9225  -0.1249   H         1 1      0.0000
@<TRIPOS>BOND
     1     1     2   ar
     2     1     6   ar
     3     1    29    1
     4     2     3   ar
     5     2     7    1
     6     3     4   ar
     7     3    30    1
     8     4     5   ar
     9     4     8    1
    10     5     6   ar
    11     5     9    1
    12     6    10    1
    13     8    11    1
    14     8    12    1
    15     8    28    1
    16    11    13    1
    17    11    26    1
    18    11    27    1
    19    13    14    1
    20    14    15    1
    21    14    16    1
    22    14    31    1
    23    16    17    1
    24    16    20    2
    25    17    18    1
    26    17    19    1
    27    17    32    1
    28    20    21    1
    29    20    22    1
    30    22    23    1
    31    22    24    1
    32    22    25    1
    33    32    33    1
    34    32    34    1
    35    13    35    1
    36    35    36    1
    37    13    37    1
    38    32    38    1
    39    38    39    1
    40    38    40    1
    41    38    41    1
@<TRIPOS>SUBSTRUCTURE
     1 1           1 GROUP             0 ****  ****    0  
@<TRIPOS>MOLECULE
Molecule Name_00001_00446
    41    41     1     0     0
SMALL
NO_CHARGES
****
Generated from the CSD

@<TRIPOS>ATOM
     1 C5      -3.9163   1.7808  -0.3924   C.ar      1 1      0.0000
     2 C4      -4.3533   0.4770  -0.2991   C.ar      1 1      0.0000
     3 C3      -3.5244  -0.4982   0.2298   C.ar      1 1      0.0000
     4 C8      -2.2491  -0.1827   0.6726   C.ar      1 1      0.0000
     5 C7      -1.8223   1.1325   0.5716   C.ar      1 1      0.0000
     6 C6      -2.6504   2.1085   0.0428   C.ar      1 1      0.0000
     7 H4      -5.3490   0.2141  -0.6408   H         1 1      0.0000
     8 C9      -1.3447  -1.2467   1.2460   C.3       1 1      0.0000
     9 H7      -0.8271   1.4005   0.9109   H         1 1      0.0000
    10 H6      -2.3018   3.1335  -0.0289   H         1 1      0.0000
    11 C10     -0.5259  -1.9754   0.1823   C.3       1 1      0.0000
    12 H9A     -0.6605  -0.7818   1.9667   H         1 1      0.0000
    13 C11      0.5684  -1.1502  -0.4754   C.3       1 1      0.0000
    14 C12      1.7308  -0.8863   0.4754   C.3       1 1      0.0000
    15 H12A     2.1970  -1.8419   0.7454   H         1 1      0.0000
    16 C13      2.7722   0.0157  -0.1139   C.2       1 1      0.0000
    17 C14      2.4483   1.4764  -0.2099   C.3       1 1      0.0000
    18 H14B     1.3807   1.5861  -0.4374   H         1 1      0.0000
    19 H14A     3.0110   1.9171  -1.0419   H         1 1      0.0000
    20 N        3.9330  -0.4644  -0.5133   N.pl3     1 1      0.0000
    21 HN       4.1043  -1.4524  -0.3268   H         1 1      0.0000
    22 C        5.0442   0.2952  -1.0675   C.3       1 1      0.0000
    23 H1A      5.9958  -0.1331  -0.7594   H         1 1      0.0000
    24 H1C      5.0081   0.2930  -2.1549   H         1 1      0.0000
    25 H1B      5.0125   1.3289  -0.7299   H         1 1      0.0000
    26 H10A    -0.0633  -2.8555   0.6458   H         1 1      0.0000
    27 H10B    -1.2099  -2.3286  -0.5993   H         1 1      0.0000
    28 H9B     -1.9554  -1.9781   1.7896   H         1 1      0.0000
    29 H5      -4.5655   2.5452  -0.8065   H         1 1      0.0000
    30 H3      -3.8774  -1.5219   0.2984   H         1 1      0.0000
    31 H12B     1.3441  -0.4318   1.3958   H         1 1      0.0000
    32 C15      2.7586   2.2482   1.0592   C.3       1 1      0.0000
    33 H15A     2.6217   3.3202   0.8709   H         1 1      0.0000
    34 H15C     3.8095   2.0878   1.3300   H         1 1      0.0000
    35 OH       1.0527  -1.8508  -1.6244   O.3       1 1      0.0000
    36 OH1      0.3076  -2.0040  -2.2564   H         1 1      0.0000
    37 H22      0.1444  -0.1859  -0.7959   H         1 1      0.0000
    38 C16      1.8793   1.8320   2.2157   C.3       1 1      0.0000
    39 H16C     2.1972   0.8714   2.6156   H         1 1      0.0000
    40 H16A     1.9251   2.5652   3.0183   H         1 1      0.0000
    41 H16B     0.8426   1.7409   1.8986   H         1 1      0.0000
@<TRIPOS>BOND
     1     1     2   ar
     2     1     6   ar
     3     1    29    1
     4     2     3   ar
     5     2     7    1
     6     3     4   ar
     7     3    30    1
     8     4     5   ar
     9     4     8    1
    10     5     6   ar
    11     5     9    1
    12     6    10    1
    13     8    11    1
    14     8    12    1
    15     8    28    1
    16    11    13    1
    17    11    26    1
    18    11    27    1
    19    13    14    1
    20    14    15    1
    21    14    16    1
    22    14    31    1
    23    16    17    1
    24    16    20    2
    25    17    18    1
    26    17    19    1
    27    17    32    1
    28    20    21    1
    29    20    22    1
    30    22    23    1
    31    22    24    1
    32    22    25    1
    33    32    33    1
    34    32    34    1
    35    13    35    1
    36    35    36    1
    37    13    37    1
    38    32    38    1
    39    38    39    1
    40    38    40    1
    41    38    41    1
@<TRIPOS>SUBSTRUCTURE
     1 1           1 GROUP             0 ****  ****    0  
@<TRIPOS>MOLECULE
Molecule Name_00001_00447
    41    41     1     0     0
SMALL
NO_CHARGES
****
Generated from the CSD

@<TRIPOS>ATOM
     1 C5      -3.9667   1.8436  -0.3233   C.ar      1 1      0.0000
     2 C4      -4.4238   0.5468  -0.4164   C.ar      1 1      0.0000
     3 C3      -3.6344  -0.5022   0.0247   C.ar      1 1      0.0000
     4 C8      -2.3792  -0.2682   0.5650   C.ar      1 1      0.0000
     5 C7      -1.9319   1.0412   0.6513   C.ar      1 1      0.0000
     6 C6      -2.7204   2.0909   0.2105   C.ar      1 1      0.0000
     7 H4      -5.4041   0.3471  -0.8362   H         1 1      0.0000
     8 C9      -1.5179  -1.4121   1.0427   C.3       1 1      0.0000
     9 H7      -0.9519   1.2461   1.0694   H         1 1      0.0000
    10 H6      -2.3562   3.1102   0.2855   H         1 1      0.0000
    11 C10     -0.6585  -2.0194  -0.0644   C.3       1 1      0.0000
    12 H9A     -0.8632  -1.0533   1.8465   H         1 1      0.0000
    13 C11      0.4621  -1.1308  -0.5799   C.3       1 1      0.0000
    14 C12      1.5732  -0.9616   0.4505   C.3       1 1      0.0000
    15 H12A     2.0333  -1.9382   0.6452   H         1 1      0.0000
    16 C13      2.6352  -0.0007   0.0096   C.2       1 1      0.0000
    17 C14      2.2977   1.4599   0.0283   C.3       1 1      0.0000
    18 H14B     1.2666   1.5876  -0.3237   H         1 1      0.0000
    19 H14A     2.9545   1.9913  -0.6713   H         1 1      0.0000
    20 N        3.8239  -0.4326  -0.3617   N.pl3     1 1      0.0000
    21 HN       3.9973  -1.4321  -0.2564   H         1 1      0.0000
    22 C        4.9555   0.3838  -0.7765   C.3       1 1      0.0000
    23 H1A      5.8915  -0.0512  -0.4323   H         1 1      0.0000
    24 H1C      4.9970   0.4622  -1.8609   H         1 1      0.0000
    25 H1B      4.8779   1.3887  -0.3673   H         1 1      0.0000
    26 H10A    -0.2158  -2.9494   0.3131   H         1 1      0.0000
    27 H10B    -1.3114  -2.2768  -0.9076   H         1 1      0.0000
    28 H9B     -2.1639  -2.1933   1.4622   H         1 1      0.0000
    29 H5      -4.5849   2.6657  -0.6686   H         1 1      0.0000
    30 H3      -4.0030  -1.5197  -0.0534   H         1 1      0.0000
    31 H12B     1.1371  -0.6046   1.3917   H         1 1      0.0000
    32 C15      2.4261   2.0916   1.4021   C.3       1 1      0.0000
    33 H15A     1.7959   1.5413   2.1115   H         1 1      0.0000
    34 H15C     2.0581   3.1242   1.3592   H         1 1      0.0000
    35 OH       1.0086  -1.7123  -1.7669   O.3       1 1      0.0000
    36 OH1      0.2975  -1.8027  -2.4481   H         1 1      0.0000
    37 H22      0.0486  -0.1400  -0.8238   H         1 1      0.0000
    38 C16      3.8516   2.0936   1.9038   C.3       1 1      0.0000
    39 H16C     4.4971   2.6524   1.2294   H         1 1      0.0000
    40 H16A     3.9131   2.5515   2.8889   H         1 1      0.0000
    41 H16B     4.2360   1.0784   1.9774   H         1 1      0.0000
@<TRIPOS>BOND
     1     1     2   ar
     2     1     6   ar
     3     1    29    1
     4     2     3   ar
     5     2     7    1
     6     3     4   ar
     7     3    30    1
     8     4     5   ar
     9     4     8    1
    10     5     6   ar
    11     5     9    1
    12     6    10    1
    13     8    11    1
    14     8    12    1
    15     8    28    1
    16    11    13    1
    17    11    26    1
    18    11    27    1
    19    13    14    1
    20    14    15    1
    21    14    16    1
    22    14    31    1
    23    16    17    1
    24    16    20    2
    25    17    18    1
    26    17    19    1
    27    17    32    1
    28    20    21    1
    29    20    22    1
    30    22    23    1
    31    22    24    1
    32    22    25    1
    33    32    33    1
    34    32    34    1
    35    13    35    1
    36    35    36    1
    37    13    37    1
    38    32    38    1
    39    38    39    1
    40    38    40    1
    41    38    41    1
@<TRIPOS>SUBSTRUCTURE
     1 1           1 GROUP             0 ****  ****    0  
@<TRIPOS>MOLECULE
Molecule Name_00001_00448
    41    41     1     0     0
SMALL
NO_CHARGES
****
Generated from the CSD

@<TRIPOS>ATOM
     1 C5      -3.8666   1.5870   1.1425   C.ar      1 1      0.0000
     2 C4      -4.2483   1.1257  -0.0988   C.ar      1 1      0.0000
     3 C3      -3.5162   0.1320  -0.7269   C.ar      1 1      0.0000
     4 C8      -2.3943  -0.4135  -0.1222   C.ar      1 1      0.0000
     5 C7      -2.0213   0.0609   1.1260   C.ar      1 1      0.0000
     6 C6      -2.7527   1.0545   1.7550   C.ar      1 1      0.0000
     7 H4      -5.1244   1.5421  -0.5851   H         1 1      0.0000
     8 C9      -1.5947  -1.4944  -0.8086   C.3       1 1      0.0000
     9 H7      -1.1455  -0.3515   1.6161   H         1 1      0.0000
    10 H6      -2.4481   1.4147   2.7321   H         1 1      0.0000
    11 C10     -0.5206  -0.9435  -1.7446   C.3       1 1      0.0000
    12 H9A     -1.1163  -2.1218  -0.0464   H         1 1      0.0000
    13 C11      0.6420  -0.2429  -1.0601   C.3       1 1      0.0000
    14 C12      1.5331  -1.2241  -0.3065   C.3       1 1      0.0000
    15 H12A     1.9410  -1.9552  -1.0154   H         1 1      0.0000
    16 C13      2.6661  -0.5519   0.4077   C.2       1 1      0.0000
    17 C14      2.3451   0.1896   1.6706   C.3       1 1      0.0000
    18 H14B     3.2158   0.1443   2.3365   H         1 1      0.0000
    19 H14A     1.5121  -0.3095   2.1806   H         1 1      0.0000
    20 N        3.8975  -0.6307  -0.0558   N.pl3     1 1      0.0000
    21 HN       4.0395  -1.2306  -0.8683   H         1 1      0.0000
    22 C        5.0928  -0.0618   0.5496   C.3       1 1      0.0000
    23 H1A      5.9838  -0.5854   0.2096   H         1 1      0.0000
    24 H1C      5.1958   0.9887   0.2854   H         1 1      0.0000
    25 H1B      5.0495  -0.1353   1.6341   H         1 1      0.0000
    26 H10A    -0.1214  -1.7747  -2.3388   H         1 1      0.0000
    27 H10B    -0.9937  -0.2345  -2.4351   H         1 1      0.0000
    28 H9B     -2.2776  -2.1311  -1.3845   H         1 1      0.0000
    29 H5      -4.4401   2.3653   1.6351   H         1 1      0.0000
    30 H3      -3.8246  -0.2239  -1.7044   H         1 1      0.0000
    31 H12B     0.9248  -1.7713   0.4242   H         1 1      0.0000
    32 C15      1.9819   1.6449   1.4405   C.3       1 1      0.0000
    33 H15A     1.6643   2.0910   2.3910   H         1 1      0.0000
    34 H15C     1.1343   1.6987   0.7462   H         1 1      0.0000
    35 OH       1.4229   0.4357  -2.0478   O.3       1 1      0.0000
    36 OH1      0.8560   1.0911  -2.5243   H         1 1      0.0000
    37 H22      0.2440   0.4963  -0.3478   H         1 1      0.0000
    38 C16      3.1348   2.4441   0.8788   C.3       1 1      0.0000
    39 H16C     3.4573   2.0364  -0.0770   H         1 1      0.0000
    40 H16A     2.8459   3.4817   0.7245   H         1 1      0.0000
    41 H16B     3.9840   2.4263   1.5587   H         1 1      0.0000
@<TRIPOS>BOND
     1     1     2   ar
     2     1     6   ar
     3     1    29    1
     4     2     3   ar
     5     2     7    1
     6     3     4   ar
     7     3    30    1
     8     4     5   ar
     9     4     8    1
    10     5     6   ar
    11     5     9    1
    12     6    10    1
    13     8    11    1
    14     8    12    1
    15     8    28    1
    16    11    13    1
    17    11    26    1
    18    11    27    1
    19    13    14    1
    20    14    15    1
    21    14    16    1
    22    14    31    1
    23    16    17    1
    24    16    20    2
    25    17    18    1
    26    17    19    1
    27    17    32    1
    28    20    21    1
    29    20    22    1
    30    22    23    1
    31    22    24    1
    32    22    25    1
    33    32    33    1
    34    32    34    1
    35    13    35    1
    36    35    36    1
    37    13    37    1
    38    32    38    1
    39    38    39    1
    40    38    40    1
    41    38    41    1
@<TRIPOS>SUBSTRUCTURE
     1 1           1 GROUP             0 ****  ****    0  
@<TRIPOS>MOLECULE
Molecule Name_00001_00449
    41    41     1     0     0
SMALL
NO_CHARGES
****
Generated from the CSD

@<TRIPOS>ATOM
     1 C5      -4.2077  -1.5157  -0.1043   C.ar      1 1      0.0000
     2 C4      -4.5943  -0.3315   0.4851   C.ar      1 1      0.0000
     3 C3      -3.7647   0.7760   0.4305   C.ar      1 1      0.0000
     4 C8      -2.5389   0.7141  -0.2144   C.ar      1 1      0.0000
     5 C7      -2.1624  -0.4839  -0.8019   C.ar      1 1      0.0000
     6 C6      -2.9913  -1.5920  -0.7478   C.ar      1 1      0.0000
     7 H4      -5.5509  -0.2667   0.9931   H         1 1      0.0000
     8 C9      -1.6335   1.9207  -0.2709   C.3       1 1      0.0000
     9 H7      -1.2064  -0.5542  -1.3103   H         1 1      0.0000
    10 H6      -2.6825  -2.5222  -1.2130   H         1 1      0.0000
    11 C10     -0.7130   2.0376   0.9424   C.3       1 1      0.0000
    12 H9A     -1.0211   1.8639  -1.1793   H         1 1      0.0000
    13 C11      0.3743   0.9795   1.0388   C.3       1 1      0.0000
    14 C12      1.4457   1.1662  -0.0299   C.3       1 1      0.0000
    15 H12A     1.9841   2.1025   0.1620   H         1 1      0.0000
    16 C13      2.4298   0.0369  -0.0718   C.2       1 1      0.0000
    17 C14      3.4842  -0.0019   0.9933   C.3       1 1      0.0000
    18 H14B     3.8308  -1.0363   1.1083   H         1 1      0.0000
    19 H14A     3.0437   0.3078   1.9489   H         1 1      0.0000
    20 N        2.3515  -0.8921  -1.0036   N.pl3     1 1      0.0000
    21 HN       1.5499  -0.8389  -1.6318   H         1 1      0.0000
    22 C        3.2116  -2.0581  -1.1438   C.3       1 1      0.0000
    23 H1A      2.7368  -2.8151  -1.7645   H         1 1      0.0000
    24 H1C      4.1579  -1.7856  -1.6063   H         1 1      0.0000
    25 H1B      3.4245  -2.5005  -0.1729   H         1 1      0.0000
    26 H10A    -0.2338   3.0240   0.9183   H         1 1      0.0000
    27 H10B    -1.3277   1.9855   1.8495   H         1 1      0.0000
    28 H9B     -2.2498   2.8255  -0.3399   H         1 1      0.0000
    29 H5      -4.8575  -2.3836  -0.0620   H         1 1      0.0000
    30 H3      -4.0778   1.7037   0.8981   H         1 1      0.0000
    31 H12B     0.9615   1.2545  -1.0103   H         1 1      0.0000
    32 C15      4.6798   0.8827   0.6916   C.3       1 1      0.0000
    33 H15A     5.3509   0.8887   1.5593   H         1 1      0.0000
    34 H15C     4.3345   1.9111   0.5289   H         1 1      0.0000
    35 OH       0.9833   1.0545   2.3308   O.3       1 1      0.0000
    36 OH1      0.2973   0.9103   3.0284   H         1 1      0.0000
    37 H22     -0.0828  -0.0144   0.9152   H         1 1      0.0000
    38 C16      5.4469   0.4186  -0.5249   C.3       1 1      0.0000
    39 H16C     4.8103   0.4234  -1.4072   H         1 1      0.0000
    40 H16A     6.2968   1.0702  -0.7166   H         1 1      0.0000
    41 H16B     5.8208  -0.5931  -0.3822   H         1 1      0.0000
@<TRIPOS>BOND
     1     1     2   ar
     2     1     6   ar
     3     1    29    1
     4     2     3   ar
     5     2     7    1
     6     3     4   ar
     7     3    30    1
     8     4     5   ar
     9     4     8    1
    10     5     6   ar
    11     5     9    1
    12     6    10    1
    13     8    11    1
    14     8    12    1
    15     8    28    1
    16    11    13    1
    17    11    26    1
    18    11    27    1
    19    13    14    1
    20    14    15    1
    21    14    16    1
    22    14    31    1
    23    16    17    1
    24    16    20    2
    25    17    18    1
    26    17    19    1
    27    17    32    1
    28    20    21    1
    29    20    22    1
    30    22    23    1
    31    22    24    1
    32    22    25    1
    33    32    33    1
    34    32    34    1
    35    13    35    1
    36    35    36    1
    37    13    37    1
    38    32    38    1
    39    38    39    1
    40    38    40    1
    41    38    41    1
@<TRIPOS>SUBSTRUCTURE
     1 1           1 GROUP             0 ****  ****    0  
@<TRIPOS>MOLECULE
Molecule Name_00001_00450
    41    41     1     0     0
SMALL
NO_CHARGES
****
Generated from the CSD

@<TRIPOS>ATOM
     1 C5      -4.2347  -1.3789  -0.3050   C.ar      1 1      0.0000
     2 C4      -4.5448  -0.3129   0.5116   C.ar      1 1      0.0000
     3 C3      -3.6687   0.7536   0.6260   C.ar      1 1      0.0000
     4 C8      -2.4725   0.7683  -0.0747   C.ar      1 1      0.0000
     5 C7      -2.1730  -0.3113  -0.8913   C.ar      1 1      0.0000
     6 C6      -3.0484  -1.3782  -1.0064   C.ar      1 1      0.0000
     7 H4      -5.4774  -0.3091   1.0661   H         1 1      0.0000
     8 C9      -1.5163   1.9294   0.0528   C.3       1 1      0.0000
     9 H7      -1.2412  -0.3204  -1.4472   H         1 1      0.0000
    10 H6      -2.7998  -2.2154  -1.6503   H         1 1      0.0000
    11 C10     -0.5460   1.7821   1.2233   C.3       1 1      0.0000
    12 H9A     -0.9421   2.0215  -0.8773   H         1 1      0.0000
    13 C11      0.4954   0.6851   1.0713   C.3       1 1      0.0000
    14 C12      1.5326   1.0291   0.0080   C.3       1 1      0.0000
    15 H12A     2.1179   1.8937   0.3447   H         1 1      0.0000
    16 C13      2.4647  -0.1069  -0.2857   C.2       1 1      0.0000
    17 C14      3.5578  -0.3785   0.7038   C.3       1 1      0.0000
    18 H14B     3.8248  -1.4412   0.6507   H         1 1      0.0000
    19 H14A     3.1855  -0.1809   1.7164   H         1 1      0.0000
    20 N        2.3097  -0.8446  -1.3670   N.pl3     1 1      0.0000
    21 HN       1.4869  -0.6483  -1.9367   H         1 1      0.0000
    22 C        3.1125  -1.9942  -1.7581   C.3       1 1      0.0000
    23 H1A      2.5688  -2.6235  -2.4596   H         1 1      0.0000
    24 H1C      4.0364  -1.6745  -2.2356   H         1 1      0.0000
    25 H1B      3.3712  -2.5982  -0.8910   H         1 1      0.0000
    26 H10A    -0.0240   2.7370   1.3611   H         1 1      0.0000
    27 H10B    -1.1275   1.5836   2.1321   H         1 1      0.0000
    28 H9B     -2.0934   2.8534   0.1817   H         1 1      0.0000
    29 H5      -4.9210  -2.2145  -0.3951   H         1 1      0.0000
    30 H3      -3.9217   1.5878   1.2719   H         1 1      0.0000
    31 H12B     1.0160   1.3153  -0.9164   H         1 1      0.0000
    32 C15      4.8064   0.4508   0.4668   C.3       1 1      0.0000
    33 H15A     5.1487   0.2990  -0.5643   H         1 1      0.0000
    34 H15C     5.6018   0.1035   1.1377   H         1 1      0.0000
    35 OH       1.1559   0.4934   2.3254   O.3       1 1      0.0000
    36 OH1      0.4910   0.2464   3.0146   H         1 1      0.0000
    37 H22     -0.0105  -0.2503   0.7860   H         1 1      0.0000
    38 C16      4.5707   1.9254   0.6986   C.3       1 1      0.0000
    39 H16C     4.0115   2.0868   1.6179   H         1 1      0.0000
    40 H16A     5.5154   2.4591   0.7783   H         1 1      0.0000
    41 H16B     4.0046   2.3593  -0.1230   H         1 1      0.0000
@<TRIPOS>BOND
     1     1     2   ar
     2     1     6   ar
     3     1    29    1
     4     2     3   ar
     5     2     7    1
     6     3     4   ar
     7     3    30    1
     8     4     5   ar
     9     4     8    1
    10     5     6   ar
    11     5     9    1
    12     6    10    1
    13     8    11    1
    14     8    12    1
    15     8    28    1
    16    11    13    1
    17    11    26    1
    18    11    27    1
    19    13    14    1
    20    14    15    1
    21    14    16    1
    22    14    31    1
    23    16    17    1
    24    16    20    2
    25    17    18    1
    26    17    19    1
    27    17    32    1
    28    20    21    1
    29    20    22    1
    30    22    23    1
    31    22    24    1
    32    22    25    1
    33    32    33    1
    34    32    34    1
    35    13    35    1
    36    35    36    1
    37    13    37    1
    38    32    38    1
    39    38    39    1
    40    38    40    1
    41    38    41    1
@<TRIPOS>SUBSTRUCTURE
     1 1           1 GROUP             0 ****  ****    0  
@<TRIPOS>MOLECULE
Molecule Name_00001_00451
    41    41     1     0     0
SMALL
NO_CHARGES
****
Generated from the CSD

@<TRIPOS>ATOM
     1 C5      -2.5040   1.9637  -0.9211   C.ar      1 1      0.0000
     2 C4      -1.9278   0.9565  -1.6648   C.ar      1 1      0.0000
     3 C3      -1.6442  -0.2658  -1.0787   C.ar      1 1      0.0000
     4 C8      -1.9334  -0.4970   0.2573   C.ar      1 1      0.0000
     5 C7      -2.5118   0.5255   0.9936   C.ar      1 1      0.0000
     6 C6      -2.7958   1.7482   0.4084   C.ar      1 1      0.0000
     7 H4      -1.6959   1.1216  -2.7118   H         1 1      0.0000
     8 C9      -1.6211  -1.8284   0.8966   C.3       1 1      0.0000
     9 H7      -2.7447   0.3659   2.0412   H         1 1      0.0000
    10 H6      -3.2491   2.5382   0.9981   H         1 1      0.0000
    11 C10     -0.1582  -2.2397   0.7424   C.3       1 1      0.0000
    12 H9A     -1.8666  -1.7768   1.9646   H         1 1      0.0000
    13 C11      0.8208  -1.5165   1.6533   C.3       1 1      0.0000
    14 C12      0.9753  -0.0487   1.2708   C.3       1 1      0.0000
    15 H12A     1.5341   0.4703   2.0594   H         1 1      0.0000
    16 C13      1.6842   0.1414  -0.0357   C.2       1 1      0.0000
    17 C14      1.8460   1.5449  -0.5372   C.3       1 1      0.0000
    18 H14B     0.9230   2.1010  -0.3316   H         1 1      0.0000
    19 H14A     1.9856   1.5258  -1.6250   H         1 1      0.0000
    20 N        2.1594  -0.8918  -0.7021   N.pl3     1 1      0.0000
    21 HN       2.0862  -1.8003  -0.2443   H         1 1      0.0000
    22 C        2.8960  -0.8533  -1.9570   C.3       1 1      0.0000
    23 H1A      3.6503  -1.6368  -1.9856   H         1 1      0.0000
    24 H1C      2.2257  -0.9974  -2.8018   H         1 1      0.0000
    25 H1B      3.3970   0.1043  -2.0821   H         1 1      0.0000
    26 H10A    -0.0801  -3.3165   0.9370   H         1 1      0.0000
    27 H10B     0.1429  -2.0642  -0.2978   H         1 1      0.0000
    28 H9B     -2.2580  -2.5986   0.4445   H         1 1      0.0000
    29 H5      -2.7266   2.9213  -1.3800   H         1 1      0.0000
    30 H3      -1.1900  -1.0522  -1.6725   H         1 1      0.0000
    31 H12B    -0.0186   0.4113   1.2081   H         1 1      0.0000
    32 C15      3.0112   2.2819   0.0968   C.3       1 1      0.0000
    33 H15A     3.9378   1.7299  -0.1034   H         1 1      0.0000
    34 H15C     2.8687   2.3128   1.1840   H         1 1      0.0000
    35 OH       0.3520  -1.6024   3.0019   O.3       1 1      0.0000
    36 OH1      0.2724  -2.5526   3.2642   H         1 1      0.0000
    37 H22      1.8034  -2.0082   1.5834   H         1 1      0.0000
    38 C16      3.1526   3.6930  -0.4253   C.3       1 1      0.0000
    39 H16C     2.2542   4.2717  -0.2207   H         1 1      0.0000
    40 H16A     3.9944   4.1961   0.0459   H         1 1      0.0000
    41 H16B     3.3173   3.6917  -1.5007   H         1 1      0.0000
@<TRIPOS>BOND
     1     1     2   ar
     2     1     6   ar
     3     1    29    1
     4     2     3   ar
     5     2     7    1
     6     3     4   ar
     7     3    30    1
     8     4     5   ar
     9     4     8    1
    10     5     6   ar
    11     5     9    1
    12     6    10    1
    13     8    11    1
    14     8    12    1
    15     8    28    1
    16    11    13    1
    17    11    26    1
    18    11    27    1
    19    13    14    1
    20    14    15    1
    21    14    16    1
    22    14    31    1
    23    16    17    1
    24    16    20    2
    25    17    18    1
    26    17    19    1
    27    17    32    1
    28    20    21    1
    29    20    22    1
    30    22    23    1
    31    22    24    1
    32    22    25    1
    33    32    33    1
    34    32    34    1
    35    13    35    1
    36    35    36    1
    37    13    37    1
    38    32    38    1
    39    38    39    1
    40    38    40    1
    41    38    41    1
@<TRIPOS>SUBSTRUCTURE
     1 1           1 GROUP             0 ****  ****    0  
@<TRIPOS>MOLECULE
Molecule Name_00001_00452
    41    41     1     0     0
SMALL
NO_CHARGES
****
Generated from the CSD

@<TRIPOS>ATOM
     1 C5      -4.3262   1.2798  -0.8765   C.ar      1 1      0.0000
     2 C4      -3.4901   0.4916  -1.6376   C.ar      1 1      0.0000
     3 C3      -2.4708  -0.2260  -1.0342   C.ar      1 1      0.0000
     4 C8      -2.2749  -0.1655   0.3369   C.ar      1 1      0.0000
     5 C7      -3.1226   0.6323   1.0899   C.ar      1 1      0.0000
     6 C6      -4.1422   1.3503   0.4875   C.ar      1 1      0.0000
     7 H4      -3.6308   0.4332  -2.7118   H         1 1      0.0000
     8 C9      -1.1617  -0.9453   0.9938   C.3       1 1      0.0000
     9 H7      -2.9856   0.6950   2.1644   H         1 1      0.0000
    10 H6      -4.7977   1.9698   1.0908   H         1 1      0.0000
    11 C10      0.1664  -0.1911   1.0176   C.3       1 1      0.0000
    12 H9A     -1.4544  -1.1851   2.0235   H         1 1      0.0000
    13 C11      1.3236  -0.9314   1.6686   C.3       1 1      0.0000
    14 C12      2.5929  -0.0871   1.7001   C.3       1 1      0.0000
    15 H12A     3.3410  -0.5879   2.3269   H         1 1      0.0000
    16 C13      3.1729   0.1438   0.3378   C.2       1 1      0.0000
    17 C14      3.1889   1.5515  -0.1779   C.3       1 1      0.0000
    18 H14B     3.9944   1.6468  -0.9164   H         1 1      0.0000
    19 H14A     3.4148   2.2362   0.6486   H         1 1      0.0000
    20 N        3.6642  -0.8573  -0.3649   N.pl3     1 1      0.0000
    21 HN       3.6965  -1.7651   0.0988   H         1 1      0.0000
    22 C        4.2873  -0.7751  -1.6779   C.3       1 1      0.0000
    23 H1A      4.8407  -1.6852  -1.8998   H         1 1      0.0000
    24 H1C      3.5361  -0.6381  -2.4530   H         1 1      0.0000
    25 H1B      4.9795   0.0628  -1.7257   H         1 1      0.0000
    26 H10A     0.4466   0.0471  -0.0159   H         1 1      0.0000
    27 H10B     0.0173   0.7556   1.5513   H         1 1      0.0000
    28 H9B     -1.0250  -1.8920   0.4566   H         1 1      0.0000
    29 H5      -5.1250   1.8420  -1.3488   H         1 1      0.0000
    30 H3      -1.8176  -0.8432  -1.6421   H         1 1      0.0000
    31 H12B     2.3665   0.8824   2.1608   H         1 1      0.0000
    32 C15      1.8820   1.9725  -0.8241   C.3       1 1      0.0000
    33 H15A     1.9460   3.0297  -1.1097   H         1 1      0.0000
    34 H15C     1.0703   1.8723  -0.0929   H         1 1      0.0000
    35 OH       0.9592  -1.2795   3.0072   O.3       1 1      0.0000
    36 OH1      0.1898  -1.9005   2.9893   H         1 1      0.0000
    37 H22      1.5228  -1.8530   1.1002   H         1 1      0.0000
    38 C16      1.5525   1.1480  -2.0470   C.3       1 1      0.0000
    39 H16C     1.4611   0.0950  -1.7890   H         1 1      0.0000
    40 H16A     0.6123   1.4716  -2.4885   H         1 1      0.0000
    41 H16B     2.3320   1.2461  -2.7997   H         1 1      0.0000
@<TRIPOS>BOND
     1     1     2   ar
     2     1     6   ar
     3     1    29    1
     4     2     3   ar
     5     2     7    1
     6     3     4   ar
     7     3    30    1
     8     4     5   ar
     9     4     8    1
    10     5     6   ar
    11     5     9    1
    12     6    10    1
    13     8    11    1
    14     8    12    1
    15     8    28    1
    16    11    13    1
    17    11    26    1
    18    11    27    1
    19    13    14    1
    20    14    15    1
    21    14    16    1
    22    14    31    1
    23    16    17    1
    24    16    20    2
    25    17    18    1
    26    17    19    1
    27    17    32    1
    28    20    21    1
    29    20    22    1
    30    22    23    1
    31    22    24    1
    32    22    25    1
    33    32    33    1
    34    32    34    1
    35    13    35    1
    36    35    36    1
    37    13    37    1
    38    32    38    1
    39    38    39    1
    40    38    40    1
    41    38    41    1
@<TRIPOS>SUBSTRUCTURE
     1 1           1 GROUP             0 ****  ****    0  
@<TRIPOS>MOLECULE
Molecule Name_00001_00453
    41    41     1     0     0
SMALL
NO_CHARGES
****
Generated from the CSD

@<TRIPOS>ATOM
     1 C5      -4.7120  -1.1708   0.1130   C.ar      1 1      0.0000
     2 C4      -3.7837  -1.4032   1.1048   C.ar      1 1      0.0000
     3 C3      -2.6610  -0.5990   1.2089   C.ar      1 1      0.0000
     4 C8      -2.4525   0.4476   0.3240   C.ar      1 1      0.0000
     5 C7      -3.3939   0.6690  -0.6694   C.ar      1 1      0.0000
     6 C6      -4.5169  -0.1346  -0.7744   C.ar      1 1      0.0000
     7 H4      -3.9327  -2.2180   1.8056   H         1 1      0.0000
     8 C9      -1.2270   1.3219   0.4358   C.3       1 1      0.0000
     9 H7      -3.2491   1.4819  -1.3733   H         1 1      0.0000
    10 H6      -5.2448   0.0520  -1.5571   H         1 1      0.0000
    11 C10     -0.0220   0.7659  -0.3204   C.3       1 1      0.0000
    12 H9A     -1.4643   2.3192   0.0453   H         1 1      0.0000
    13 C11      1.2412   1.6079  -0.2413   C.3       1 1      0.0000
    14 C12      2.3764   1.0087  -1.0642   C.3       1 1      0.0000
    15 H12A     3.1854   1.7447  -1.1483   H         1 1      0.0000
    16 C13      2.9241  -0.2530  -0.4693   C.2       1 1      0.0000
    17 C14      4.2422  -0.1681   0.2399   C.3       1 1      0.0000
    18 H14B     4.9023   0.5035  -0.3228   H         1 1      0.0000
    19 H14A     4.7108  -1.1598   0.2511   H         1 1      0.0000
    20 N        2.2556  -1.3857  -0.5564   N.pl3     1 1      0.0000
    21 HN       1.3269  -1.3340  -0.9747   H         1 1      0.0000
    22 C        2.6469  -2.6717   0.0021   C.3       1 1      0.0000
    23 H1A      1.7737  -3.2299   0.3335   H         1 1      0.0000
    24 H1C      3.1704  -3.2709  -0.7399   H         1 1      0.0000
    25 H1B      3.3075  -2.5376   0.8560   H         1 1      0.0000
    26 H10A     0.2030  -0.2323   0.0750   H         1 1      0.0000
    27 H10B    -0.2976   0.6539  -1.3763   H         1 1      0.0000
    28 H9B     -0.9638   1.4322   1.4951   H         1 1      0.0000
    29 H5      -5.5918  -1.8005   0.0313   H         1 1      0.0000
    30 H3      -1.9357  -0.7905   1.9928   H         1 1      0.0000
    31 H12B     2.0113   0.7969  -2.0767   H         1 1      0.0000
    32 C15      4.1292   0.3401   1.6653   C.3       1 1      0.0000
    33 H15A     5.0775   0.1618   2.1871   H         1 1      0.0000
    34 H15C     3.3482  -0.2256   2.1882   H         1 1      0.0000
    35 OH       0.9551   2.9229  -0.7257   O.3       1 1      0.0000
    36 OH1      0.4092   3.4089  -0.0594   H         1 1      0.0000
    37 H22      1.5604   1.6748   0.8103   H         1 1      0.0000
    38 C16      3.7995   1.8137   1.7266   C.3       1 1      0.0000
    39 H16C     3.7069   2.2301   0.7257   H         1 1      0.0000
    40 H16A     2.8598   1.9772   2.2500   H         1 1      0.0000
    41 H16B     4.5794   2.3619   2.2510   H         1 1      0.0000
@<TRIPOS>BOND
     1     1     2   ar
     2     1     6   ar
     3     1    29    1
     4     2     3   ar
     5     2     7    1
     6     3     4   ar
     7     3    30    1
     8     4     5   ar
     9     4     8    1
    10     5     6   ar
    11     5     9    1
    12     6    10    1
    13     8    11    1
    14     8    12    1
    15     8    28    1
    16    11    13    1
    17    11    26    1
    18    11    27    1
    19    13    14    1
    20    14    15    1
    21    14    16    1
    22    14    31    1
    23    16    17    1
    24    16    20    2
    25    17    18    1
    26    17    19    1
    27    17    32    1
    28    20    21    1
    29    20    22    1
    30    22    23    1
    31    22    24    1
    32    22    25    1
    33    32    33    1
    34    32    34    1
    35    13    35    1
    36    35    36    1
    37    13    37    1
    38    32    38    1
    39    38    39    1
    40    38    40    1
    41    38    41    1
@<TRIPOS>SUBSTRUCTURE
     1 1           1 GROUP             0 ****  ****    0  
@<TRIPOS>MOLECULE
Molecule Name_00001_00454
    41    41     1     0     0
SMALL
NO_CHARGES
****
Generated from the CSD

@<TRIPOS>ATOM
     1 C5      -5.4143   0.6209   0.3944   C.ar      1 1      0.0000
     2 C4      -4.4363   0.9207   1.3180   C.ar      1 1      0.0000
     3 C3      -3.0997   0.7623   0.9920   C.ar      1 1      0.0000
     4 C8      -2.7238   0.3033  -0.2610   C.ar      1 1      0.0000
     5 C7      -3.7182   0.0044  -1.1797   C.ar      1 1      0.0000
     6 C6      -5.0551   0.1625  -0.8547   C.ar      1 1      0.0000
     7 H4      -4.7142   1.2816   2.3028   H         1 1      0.0000
     8 C9      -1.2668   0.1277  -0.6148   C.3       1 1      0.0000
     9 H7      -3.4456  -0.3577  -2.1655   H         1 1      0.0000
    10 H6      -5.8215  -0.0751  -1.5851   H         1 1      0.0000
    11 C10     -0.5267  -0.8094   0.3376   C.3       1 1      0.0000
    12 H9A     -1.1935  -0.2694  -1.6348   H         1 1      0.0000
    13 C11      0.9462  -1.0224   0.0272   C.3       1 1      0.0000
    14 C12      1.7733   0.2267   0.3104   C.3       1 1      0.0000
    15 H12A     1.7547   0.4324   1.3877   H         1 1      0.0000
    16 C13      3.1975   0.0963  -0.1372   C.2       1 1      0.0000
    17 C14      3.9028   1.3452  -0.5735   C.3       1 1      0.0000
    18 H14B     3.2014   1.9636  -1.1470   H         1 1      0.0000
    19 H14A     4.7308   1.0778  -1.2413   H         1 1      0.0000
    20 N        3.8035  -1.0742  -0.1268   N.pl3     1 1      0.0000
    21 HN       3.2795  -1.8535   0.2711   H         1 1      0.0000
    22 C        5.1856  -1.3415  -0.4974   C.3       1 1      0.0000
    23 H1A      5.6042  -2.1334   0.1201   H         1 1      0.0000
    24 H1C      5.2524  -1.6522  -1.5379   H         1 1      0.0000
    25 H1B      5.7990  -0.4521  -0.3698   H         1 1      0.0000
    26 H10A    -0.6105  -0.4052   1.3539   H         1 1      0.0000
    27 H10B    -1.0280  -1.7851   0.3223   H         1 1      0.0000
    28 H9B     -0.7767   1.1090  -0.6026   H         1 1      0.0000
    29 H5      -6.4616   0.7451   0.6493   H         1 1      0.0000
    30 H3      -2.3372   1.0005   1.7263   H         1 1      0.0000
    31 H12B     1.3154   1.0826  -0.2007   H         1 1      0.0000
    32 C15      4.4460   2.1665   0.5812   C.3       1 1      0.0000
    33 H15A     5.0442   2.9953   0.1831   H         1 1      0.0000
    34 H15C     5.1081   1.5382   1.1895   H         1 1      0.0000
    35 OH       1.4389  -2.1016   0.8263   O.3       1 1      0.0000
    36 OH1      0.9217  -2.9212   0.6296   H         1 1      0.0000
    37 H22      1.0524  -1.2864  -1.0364   H         1 1      0.0000
    38 C16      3.3483   2.7241   1.4575   C.3       1 1      0.0000
    39 H16C     2.8776   1.9324   2.0367   H         1 1      0.0000
    40 H16A     3.7461   3.4613   2.1518   H         1 1      0.0000
    41 H16B     2.5808   3.2054   0.8550   H         1 1      0.0000
@<TRIPOS>BOND
     1     1     2   ar
     2     1     6   ar
     3     1    29    1
     4     2     3   ar
     5     2     7    1
     6     3     4   ar
     7     3    30    1
     8     4     5   ar
     9     4     8    1
    10     5     6   ar
    11     5     9    1
    12     6    10    1
    13     8    11    1
    14     8    12    1
    15     8    28    1
    16    11    13    1
    17    11    26    1
    18    11    27    1
    19    13    14    1
    20    14    15    1
    21    14    16    1
    22    14    31    1
    23    16    17    1
    24    16    20    2
    25    17    18    1
    26    17    19    1
    27    17    32    1
    28    20    21    1
    29    20    22    1
    30    22    23    1
    31    22    24    1
    32    22    25    1
    33    32    33    1
    34    32    34    1
    35    13    35    1
    36    35    36    1
    37    13    37    1
    38    32    38    1
    39    38    39    1
    40    38    40    1
    41    38    41    1
@<TRIPOS>SUBSTRUCTURE
     1 1           1 GROUP             0 ****  ****    0  
@<TRIPOS>MOLECULE
Molecule Name_00001_00455
    41    41     1     0     0
SMALL
NO_CHARGES
****
Generated from the CSD

@<TRIPOS>ATOM
     1 C5      -5.3478   0.5573   0.3500   C.ar      1 1      0.0000
     2 C4      -4.4951   0.2306   1.3823   C.ar      1 1      0.0000
     3 C3      -3.1266   0.2029   1.1717   C.ar      1 1      0.0000
     4 C8      -2.5933   0.5021  -0.0726   C.ar      1 1      0.0000
     5 C7      -3.4629   0.8279  -1.1020   C.ar      1 1      0.0000
     6 C6      -4.8316   0.8559  -0.8924   C.ar      1 1      0.0000
     7 H4      -4.8969  -0.0056   2.3621   H         1 1      0.0000
     8 C9      -1.1017   0.4686  -0.3026   C.3       1 1      0.0000
     9 H7      -3.0663   1.0639  -2.0840   H         1 1      0.0000
    10 H6      -5.4990   1.1134  -1.7082   H         1 1      0.0000
    11 C10     -0.4731  -0.8828   0.0316   C.3       1 1      0.0000
    12 H9A     -0.8982   0.7067  -1.3539   H         1 1      0.0000
    13 C11      1.0293  -0.9724  -0.1820   C.3       1 1      0.0000
    14 C12      1.7996  -0.1470   0.8428   C.3       1 1      0.0000
    15 H12A     1.6455  -0.5785   1.8395   H         1 1      0.0000
    16 C13      3.2696  -0.0890   0.5578   C.2       1 1      0.0000
    17 C14      4.0054   1.1512   0.9681   C.3       1 1      0.0000
    18 H14B     5.0552   0.8927   1.1536   H         1 1      0.0000
    19 H14A     3.5853   1.5255   1.9096   H         1 1      0.0000
    20 N        3.8863  -1.1028  -0.0160   N.pl3     1 1      0.0000
    21 HN       3.3285  -1.9412  -0.1776   H         1 1      0.0000
    22 C        5.3071  -1.1986  -0.3179   C.3       1 1      0.0000
    23 H1A      5.5837  -2.2249  -0.5499   H         1 1      0.0000
    24 H1C      5.5618  -0.5774  -1.1741   H         1 1      0.0000
    25 H1B      5.9054  -0.8694   0.5289   H         1 1      0.0000
    26 H10A    -0.6867  -1.1122   1.0829   H         1 1      0.0000
    27 H10B    -0.9566  -1.6512  -0.5842   H         1 1      0.0000
    28 H9B     -0.6291   1.2441   0.3128   H         1 1      0.0000
    29 H5      -6.4200   0.5794   0.5147   H         1 1      0.0000
    30 H3      -2.4636  -0.0562   1.9906   H         1 1      0.0000
    31 H12B     1.3976   0.8736   0.8552   H         1 1      0.0000
    32 C15      3.9512   2.2566  -0.0702   C.3       1 1      0.0000
    33 H15A     4.3279   1.8714  -1.0258   H         1 1      0.0000
    34 H15C     4.6094   3.0766   0.2425   H         1 1      0.0000
    35 OH       1.4330  -2.3408  -0.0803   O.3       1 1      0.0000
    36 OH1      0.9543  -2.8778  -0.7589   H         1 1      0.0000
    37 H22      1.2692  -0.6020  -1.1907   H         1 1      0.0000
    38 C16      2.5520   2.7918  -0.2688   C.3       1 1      0.0000
    39 H16C     2.1170   3.0959   0.6810   H         1 1      0.0000
    40 H16A     2.5598   3.6557  -0.9301   H         1 1      0.0000
    41 H16B     1.9079   2.0336  -0.7093   H         1 1      0.0000
@<TRIPOS>BOND
     1     1     2   ar
     2     1     6   ar
     3     1    29    1
     4     2     3   ar
     5     2     7    1
     6     3     4   ar
     7     3    30    1
     8     4     5   ar
     9     4     8    1
    10     5     6   ar
    11     5     9    1
    12     6    10    1
    13     8    11    1
    14     8    12    1
    15     8    28    1
    16    11    13    1
    17    11    26    1
    18    11    27    1
    19    13    14    1
    20    14    15    1
    21    14    16    1
    22    14    31    1
    23    16    17    1
    24    16    20    2
    25    17    18    1
    26    17    19    1
    27    17    32    1
    28    20    21    1
    29    20    22    1
    30    22    23    1
    31    22    24    1
    32    22    25    1
    33    32    33    1
    34    32    34    1
    35    13    35    1
    36    35    36    1
    37    13    37    1
    38    32    38    1
    39    38    39    1
    40    38    40    1
    41    38    41    1
@<TRIPOS>SUBSTRUCTURE
     1 1           1 GROUP             0 ****  ****    0  
@<TRIPOS>MOLECULE
Molecule Name_00001_00456
    41    41     1     0     0
SMALL
NO_CHARGES
****
Generated from the CSD

@<TRIPOS>ATOM
     1 C5      -5.5582   0.5581   0.2560   C.ar      1 1      0.0000
     2 C4      -5.1639  -0.0257  -0.9285   C.ar      1 1      0.0000
     3 C3      -3.8174  -0.1824  -1.2123   C.ar      1 1      0.0000
     4 C8      -2.8486   0.2415  -0.3157   C.ar      1 1      0.0000
     5 C7      -3.2598   0.8281   0.8713   C.ar      1 1      0.0000
     6 C6      -4.6059   0.9853   1.1560   C.ar      1 1      0.0000
     7 H4      -5.9099  -0.3632  -1.6403   H         1 1      0.0000
     8 C9      -1.3810   0.0734  -0.6268   C.3       1 1      0.0000
     9 H7      -2.5177   1.1682   1.5860   H         1 1      0.0000
    10 H6      -4.9116   1.4458   2.0897   H         1 1      0.0000
    11 C10     -0.6309  -0.7301   0.4338   C.3       1 1      0.0000
    12 H9A     -1.2780  -0.4308  -1.5956   H         1 1      0.0000
    13 C11      0.8529  -0.9300   0.1702   C.3       1 1      0.0000
    14 C12      1.6379   0.3677   0.3258   C.3       1 1      0.0000
    15 H12A     1.5940   0.6898   1.3735   H         1 1      0.0000
    16 C13      3.0731   0.2331  -0.0838   C.2       1 1      0.0000
    17 C14      3.7493   1.4479  -0.6450   C.3       1 1      0.0000
    18 H14B     3.0425   1.9739  -1.2986   H         1 1      0.0000
    19 H14A     4.6005   1.1348  -1.2617   H         1 1      0.0000
    20 N        3.7128  -0.9098   0.0644   N.pl3     1 1      0.0000
    21 HN       3.2048  -1.6565   0.5382   H         1 1      0.0000
    22 C        5.1085  -1.1731  -0.2543   C.3       1 1      0.0000
    23 H1A      5.5469  -1.8570   0.4695   H         1 1      0.0000
    24 H1C      5.2005  -1.6203  -1.2418   H         1 1      0.0000
    25 H1B      5.6877  -0.2522  -0.2446   H         1 1      0.0000
    26 H10A    -0.7446  -0.2195   1.3980   H         1 1      0.0000
    27 H10B    -1.1031  -1.7166   0.5190   H         1 1      0.0000
    28 H9B     -0.9201   1.0648  -0.7158   H         1 1      0.0000
    29 H5      -6.6130   0.6808   0.4788   H         1 1      0.0000
    30 H3      -3.5171  -0.6427  -2.1478   H         1 1      0.0000
    31 H12B     1.1644   1.1476  -0.2832   H         1 1      0.0000
    32 C15      4.2395   2.4118   0.4196   C.3       1 1      0.0000
    33 H15A     3.3963   2.7007   1.0591   H         1 1      0.0000
    34 H15C     4.6187   3.3202  -0.0645   H         1 1      0.0000
    35 OH       1.3625  -1.8991   1.0905   O.3       1 1      0.0000
    36 OH1      0.8731  -2.7511   0.9779   H         1 1      0.0000
    37 H22      0.9857  -1.3058  -0.8561   H         1 1      0.0000
    38 C16      5.3306   1.8150   1.2781   C.3       1 1      0.0000
    39 H16C     6.1906   1.5384   0.6717   H         1 1      0.0000
    40 H16A     5.6618   2.5271   2.0311   H         1 1      0.0000
    41 H16B     4.9749   0.9226   1.7888   H         1 1      0.0000
@<TRIPOS>BOND
     1     1     2   ar
     2     1     6   ar
     3     1    29    1
     4     2     3   ar
     5     2     7    1
     6     3     4   ar
     7     3    30    1
     8     4     5   ar
     9     4     8    1
    10     5     6   ar
    11     5     9    1
    12     6    10    1
    13     8    11    1
    14     8    12    1
    15     8    28    1
    16    11    13    1
    17    11    26    1
    18    11    27    1
    19    13    14    1
    20    14    15    1
    21    14    16    1
    22    14    31    1
    23    16    17    1
    24    16    20    2
    25    17    18    1
    26    17    19    1
    27    17    32    1
    28    20    21    1
    29    20    22    1
    30    22    23    1
    31    22    24    1
    32    22    25    1
    33    32    33    1
    34    32    34    1
    35    13    35    1
    36    35    36    1
    37    13    37    1
    38    32    38    1
    39    38    39    1
    40    38    40    1
    41    38    41    1
@<TRIPOS>SUBSTRUCTURE
     1 1           1 GROUP             0 ****  ****    0  
@<TRIPOS>MOLECULE
Molecule Name_00001_00457
    41    41     1     0     0
SMALL
NO_CHARGES
****
Generated from the CSD

@<TRIPOS>ATOM
     1 C5      -4.7763   0.9595  -0.0915   C.ar      1 1      0.0000
     2 C4      -4.0641   0.3179  -1.0817   C.ar      1 1      0.0000
     3 C3      -2.8918  -0.3515  -0.7728   C.ar      1 1      0.0000
     4 C8      -2.4172  -0.3888   0.5293   C.ar      1 1      0.0000
     5 C7      -3.1431   0.2620   1.5150   C.ar      1 1      0.0000
     6 C6      -4.3156   0.9317   1.2071   C.ar      1 1      0.0000
     7 H4      -4.4227   0.3374  -2.1056   H         1 1      0.0000
     8 C9      -1.1375  -1.1159   0.8650   C.3       1 1      0.0000
     9 H7      -2.7884   0.2464   2.5402   H         1 1      0.0000
    10 H6      -4.8727   1.4357   1.9900   H         1 1      0.0000
    11 C10      0.1080  -0.2480   0.6958   C.3       1 1      0.0000
    12 H9A     -1.1894  -1.4671   1.9030   H         1 1      0.0000
    13 C11      0.4582   0.1153  -0.7382   C.3       1 1      0.0000
    14 C12      1.7173   0.9716  -0.8165   C.3       1 1      0.0000
    15 H12A     1.5871   1.8590  -0.1848   H         1 1      0.0000
    16 C13      2.9489   0.2380  -0.3802   C.2       1 1      0.0000
    17 C14      4.1964   1.0430  -0.1720   C.3       1 1      0.0000
    18 H14B     4.2352   1.8349  -0.9302   H         1 1      0.0000
    19 H14A     5.0713   0.3985  -0.3215   H         1 1      0.0000
    20 N        2.9212  -1.0634  -0.1728   N.pl3     1 1      0.0000
    21 HN       2.0106  -1.5162  -0.2490   H         1 1      0.0000
    22 C        4.0250  -1.8950   0.2845   C.3       1 1      0.0000
    23 H1A      3.6638  -2.6975   0.9243   H         1 1      0.0000
    24 H1C      4.5454  -2.3429  -0.5595   H         1 1      0.0000
    25 H1B      4.7433  -1.3067   0.8514   H         1 1      0.0000
    26 H10A    -0.0390   0.6805   1.2612   H         1 1      0.0000
    27 H10B     0.9615  -0.7776   1.1368   H         1 1      0.0000
    28 H9B     -1.0488  -1.9976   0.2184   H         1 1      0.0000
    29 H5      -5.6950   1.4839  -0.3331   H         1 1      0.0000
    30 H3      -2.3380  -0.8531  -1.5595   H         1 1      0.0000
    31 H12B     1.8530   1.3146  -1.8497   H         1 1      0.0000
    32 C15      4.2818   1.6793   1.2030   C.3       1 1      0.0000
    33 H15A     5.2750   2.1271   1.3312   H         1 1      0.0000
    34 H15C     4.1646   0.9013   1.9675   H         1 1      0.0000
    35 OH       0.6618  -1.0867  -1.4863   O.3       1 1      0.0000
    36 OH1     -0.1811  -1.6028  -1.5183   H         1 1      0.0000
    37 H22     -0.3810   0.6745  -1.1799   H         1 1      0.0000
    38 C16      3.2283   2.7425   1.4118   C.3       1 1      0.0000
    39 H16C     2.2626   2.2910   1.6296   H         1 1      0.0000
    40 H16A     3.4946   3.3912   2.2436   H         1 1      0.0000
    41 H16B     3.1210   3.3592   0.5218   H         1 1      0.0000
@<TRIPOS>BOND
     1     1     2   ar
     2     1     6   ar
     3     1    29    1
     4     2     3   ar
     5     2     7    1
     6     3     4   ar
     7     3    30    1
     8     4     5   ar
     9     4     8    1
    10     5     6   ar
    11     5     9    1
    12     6    10    1
    13     8    11    1
    14     8    12    1
    15     8    28    1
    16    11    13    1
    17    11    26    1
    18    11    27    1
    19    13    14    1
    20    14    15    1
    21    14    16    1
    22    14    31    1
    23    16    17    1
    24    16    20    2
    25    17    18    1
    26    17    19    1
    27    17    32    1
    28    20    21    1
    29    20    22    1
    30    22    23    1
    31    22    24    1
    32    22    25    1
    33    32    33    1
    34    32    34    1
    35    13    35    1
    36    35    36    1
    37    13    37    1
    38    32    38    1
    39    38    39    1
    40    38    40    1
    41    38    41    1
@<TRIPOS>SUBSTRUCTURE
     1 1           1 GROUP             0 ****  ****    0  
@<TRIPOS>MOLECULE
Molecule Name_00001_00458
    41    41     1     0     0
SMALL
NO_CHARGES
****
Generated from the CSD

@<TRIPOS>ATOM
     1 C5      -4.8718   0.8009  -0.2296   C.ar      1 1      0.0000
     2 C4      -4.1413   0.0091  -1.0891   C.ar      1 1      0.0000
     3 C3      -2.9385  -0.5396  -0.6767   C.ar      1 1      0.0000
     4 C8      -2.4513  -0.3046   0.5999   C.ar      1 1      0.0000
     5 C7      -3.1960   0.4948   1.4534   C.ar      1 1      0.0000
     6 C6      -4.3989   1.0440   1.0419   C.ar      1 1      0.0000
     7 H4      -4.5093  -0.1847  -2.0912   H         1 1      0.0000
     8 C9      -1.1386  -0.9002   1.0480   C.3       1 1      0.0000
     9 H7      -2.8319   0.6925   2.4562   H         1 1      0.0000
    10 H6      -4.9704   1.6670   1.7220   H         1 1      0.0000
    11 C10      0.0668  -0.0316   0.6932   C.3       1 1      0.0000
    12 H9A     -1.1662  -1.0455   2.1350   H         1 1      0.0000
    13 C11      0.3884   0.0609  -0.7897   C.3       1 1      0.0000
    14 C12      1.6079   0.9372  -1.0534   C.3       1 1      0.0000
    15 H12A     1.4428   1.9253  -0.6064   H         1 1      0.0000
    16 C13      2.8735   0.3562  -0.4999   C.2       1 1      0.0000
    17 C14      4.0836   1.2406  -0.4654   C.3       1 1      0.0000
    18 H14B     4.1134   1.8328  -1.3884   H         1 1      0.0000
    19 H14A     4.9859   0.6173  -0.4428   H         1 1      0.0000
    20 N        2.9062  -0.8811  -0.0466   N.pl3     1 1      0.0000
    21 HN       2.0169  -1.3799  -0.0232   H         1 1      0.0000
    22 C        4.0485  -1.5597   0.5479   C.3       1 1      0.0000
    23 H1A      3.7292  -2.2219   1.3499   H         1 1      0.0000
    24 H1C      4.5720  -2.1567  -0.1960   H         1 1      0.0000
    25 H1B      4.7528  -0.8412   0.9617   H         1 1      0.0000
    26 H10A    -0.1151   0.9821   1.0710   H         1 1      0.0000
    27 H10B     0.9462  -0.4307   1.2136   H         1 1      0.0000
    28 H9B     -1.0175  -1.8861   0.5824   H         1 1      0.0000
    29 H5      -5.8143   1.2308  -0.5523   H         1 1      0.0000
    30 H3      -2.3705  -1.1611  -1.3610   H         1 1      0.0000
    31 H12B     1.7219   1.0755  -2.1357   H         1 1      0.0000
    32 C15      4.1070   2.1856   0.7217   C.3       1 1      0.0000
    33 H15A     3.1898   2.7872   0.7207   H         1 1      0.0000
    34 H15C     4.9569   2.8715   0.6189   H         1 1      0.0000
    35 OH       0.6382  -1.2538  -1.2947   O.3       1 1      0.0000
    36 OH1     -0.1841  -1.7982  -1.2201   H         1 1      0.0000
    37 H22     -0.4783   0.4886  -1.3170   H         1 1      0.0000
    38 C16      4.2175   1.4528   2.0387   C.3       1 1      0.0000
    39 H16C     5.1312   0.8634   2.0767   H         1 1      0.0000
    40 H16A     4.2319   2.1543   2.8703   H         1 1      0.0000
    41 H16B     3.3740   0.7798   2.1776   H         1 1      0.0000
@<TRIPOS>BOND
     1     1     2   ar
     2     1     6   ar
     3     1    29    1
     4     2     3   ar
     5     2     7    1
     6     3     4   ar
     7     3    30    1
     8     4     5   ar
     9     4     8    1
    10     5     6   ar
    11     5     9    1
    12     6    10    1
    13     8    11    1
    14     8    12    1
    15     8    28    1
    16    11    13    1
    17    11    26    1
    18    11    27    1
    19    13    14    1
    20    14    15    1
    21    14    16    1
    22    14    31    1
    23    16    17    1
    24    16    20    2
    25    17    18    1
    26    17    19    1
    27    17    32    1
    28    20    21    1
    29    20    22    1
    30    22    23    1
    31    22    24    1
    32    22    25    1
    33    32    33    1
    34    32    34    1
    35    13    35    1
    36    35    36    1
    37    13    37    1
    38    32    38    1
    39    38    39    1
    40    38    40    1
    41    38    41    1
@<TRIPOS>SUBSTRUCTURE
     1 1           1 GROUP             0 ****  ****    0  
@<TRIPOS>MOLECULE
Molecule Name_00001_00459
    41    41     1     0     0
SMALL
NO_CHARGES
****
Generated from the CSD

@<TRIPOS>ATOM
     1 C5      -4.9826   0.8262  -0.3353   C.ar      1 1      0.0000
     2 C4      -4.0913   0.4161  -1.3031   C.ar      1 1      0.0000
     3 C3      -2.9239  -0.2358  -0.9422   C.ar      1 1      0.0000
     4 C8      -2.6333  -0.4866   0.3900   C.ar      1 1      0.0000
     5 C7      -3.5383  -0.0674   1.3529   C.ar      1 1      0.0000
     6 C6      -4.7060   0.5846   0.9930   C.ar      1 1      0.0000
     7 H4      -4.3045   0.6044  -2.3501   H         1 1      0.0000
     8 C9      -1.3591  -1.1943   0.7832   C.3       1 1      0.0000
     9 H7      -3.3293  -0.2524   2.4014   H         1 1      0.0000
    10 H6      -5.4045   0.9059   1.7586   H         1 1      0.0000
    11 C10     -0.1749  -0.2455   0.9575   C.3       1 1      0.0000
    12 H9A     -1.5267  -1.7326   1.7242   H         1 1      0.0000
    13 C11      0.3412   0.3932  -0.3218   C.3       1 1      0.0000
    14 C12      1.5265   1.3156  -0.0588   C.3       1 1      0.0000
    15 H12A     1.2380   2.0659   0.6877   H         1 1      0.0000
    16 C13      2.7385   0.5819   0.4294   C.2       1 1      0.0000
    17 C14      3.8729   1.4012   0.9678   C.3       1 1      0.0000
    18 H14B     4.4586   0.7811   1.6575   H         1 1      0.0000
    19 H14A     3.4689   2.2439   1.5419   H         1 1      0.0000
    20 N        2.7881  -0.7349   0.3987   N.pl3     1 1      0.0000
    21 HN       1.9381  -1.2147   0.1030   H         1 1      0.0000
    22 C        3.8790  -1.5755   0.8702   C.3       1 1      0.0000
    23 H1A      3.5355  -2.5937   1.0402   H         1 1      0.0000
    24 H1C      4.6844  -1.6073   0.1394   H         1 1      0.0000
    25 H1B      4.2849  -1.1941   1.8047   H         1 1      0.0000
    26 H10A    -0.4720   0.5542   1.6472   H         1 1      0.0000
    27 H10B     0.6483  -0.8013   1.4232   H         1 1      0.0000
    28 H9B     -1.1119  -1.9362   0.0138   H         1 1      0.0000
    29 H5      -5.8974   1.3367  -0.6177   H         1 1      0.0000
    30 H3      -2.2282  -0.5542  -1.7115   H         1 1      0.0000
    31 H12B     1.7792   1.8463  -0.9850   H         1 1      0.0000
    32 C15      4.7961   1.9366  -0.1110   C.3       1 1      0.0000
    33 H15A     5.5297   2.6121   0.3460   H         1 1      0.0000
    34 H15C     4.2083   2.5192  -0.8311   H         1 1      0.0000
    35 OH       0.7423  -0.6383  -1.2279   O.3       1 1      0.0000
    36 OH1     -0.0483  -1.1686  -1.4957   H         1 1      0.0000
    37 H22     -0.4704   0.9782  -0.7814   H         1 1      0.0000
    38 C16      5.5261   0.8344  -0.8431   C.3       1 1      0.0000
    39 H16C     4.8221   0.1598  -1.3257   H         1 1      0.0000
    40 H16A     6.1794   1.2471  -1.6090   H         1 1      0.0000
    41 H16B     6.1359   0.2525  -0.1551   H         1 1      0.0000
@<TRIPOS>BOND
     1     1     2   ar
     2     1     6   ar
     3     1    29    1
     4     2     3   ar
     5     2     7    1
     6     3     4   ar
     7     3    30    1
     8     4     5   ar
     9     4     8    1
    10     5     6   ar
    11     5     9    1
    12     6    10    1
    13     8    11    1
    14     8    12    1
    15     8    28    1
    16    11    13    1
    17    11    26    1
    18    11    27    1
    19    13    14    1
    20    14    15    1
    21    14    16    1
    22    14    31    1
    23    16    17    1
    24    16    20    2
    25    17    18    1
    26    17    19    1
    27    17    32    1
    28    20    21    1
    29    20    22    1
    30    22    23    1
    31    22    24    1
    32    22    25    1
    33    32    33    1
    34    32    34    1
    35    13    35    1
    36    35    36    1
    37    13    37    1
    38    32    38    1
    39    38    39    1
    40    38    40    1
    41    38    41    1
@<TRIPOS>SUBSTRUCTURE
     1 1           1 GROUP             0 ****  ****    0  
@<TRIPOS>MOLECULE
Molecule Name_00001_00460
    41    41     1     0     0
SMALL
NO_CHARGES
****
Generated from the CSD

@<TRIPOS>ATOM
     1 C5      -4.8747   1.0205  -0.0116   C.ar      1 1      0.0000
     2 C4      -4.0188   0.8766  -1.0822   C.ar      1 1      0.0000
     3 C3      -2.8791   0.0989  -0.9619   C.ar      1 1      0.0000
     4 C8      -2.5812  -0.5450   0.2292   C.ar      1 1      0.0000
     5 C7      -3.4505  -0.3904   1.2981   C.ar      1 1      0.0000
     6 C6      -4.5904   0.3871   1.1788   C.ar      1 1      0.0000
     7 H4      -4.2382   1.3736  -2.0213   H         1 1      0.0000
     8 C9      -1.3372  -1.3900   0.3609   C.3       1 1      0.0000
     9 H7      -3.2351  -0.8845   2.2397   H         1 1      0.0000
    10 H6      -5.2610   0.4977   2.0245   H         1 1      0.0000
    11 C10     -0.1059  -0.5851   0.7722   C.3       1 1      0.0000
    12 H9A     -1.5167  -2.1740   1.1069   H         1 1      0.0000
    13 C11      0.4215   0.3797  -0.2776   C.3       1 1      0.0000
    14 C12      1.6535   1.1336   0.2109   C.3       1 1      0.0000
    15 H12A     1.4120   1.6439   1.1514   H         1 1      0.0000
    16 C13      2.8351   0.2385   0.4305   C.2       1 1      0.0000
    17 C14      4.0135   0.8141   1.1570   C.3       1 1      0.0000
    18 H14B     4.5739  -0.0052   1.6240   H         1 1      0.0000
    19 H14A     3.6571   1.4710   1.9598   H         1 1      0.0000
    20 N        2.8217  -1.0115   0.0125   N.pl3     1 1      0.0000
    21 HN       1.9464  -1.3466  -0.3895   H         1 1      0.0000
    22 C        3.8771  -1.9986   0.1878   C.3       1 1      0.0000
    23 H1A      3.4847  -3.0070   0.0739   H         1 1      0.0000
    24 H1C      4.6642  -1.8562  -0.5497   H         1 1      0.0000
    25 H1B      4.3218  -1.9177   1.1773   H         1 1      0.0000
    26 H10A    -0.3535  -0.0123   1.6743   H         1 1      0.0000
    27 H10B     0.6963  -1.2874   1.0306   H         1 1      0.0000
    28 H9B     -1.1377  -1.8820  -0.5990   H         1 1      0.0000
    29 H5      -5.7678   1.6295  -0.1056   H         1 1      0.0000
    30 H3      -2.2113  -0.0077  -1.8103   H         1 1      0.0000
    31 H12B     1.9191   1.9011  -0.5266   H         1 1      0.0000
    32 C15      4.9526   1.5978   0.2588   C.3       1 1      0.0000
    33 H15A     5.2799   0.9549  -0.5677   H         1 1      0.0000
    34 H15C     5.8428   1.8848   0.8319   H         1 1      0.0000
    35 OH       0.7591  -0.3552  -1.4573   O.3       1 1      0.0000
    36 OH1     -0.0592  -0.7545  -1.8433   H         1 1      0.0000
    37 H22     -0.3677   1.1074  -0.5222   H         1 1      0.0000
    38 C16      4.3049   2.8405  -0.3068   C.3       1 1      0.0000
    39 H16C     3.6407   3.2962   0.4247   H         1 1      0.0000
    40 H16A     5.0576   3.5751  -0.5851   H         1 1      0.0000
    41 H16B     3.7204   2.6017  -1.1928   H         1 1      0.0000
@<TRIPOS>BOND
     1     1     2   ar
     2     1     6   ar
     3     1    29    1
     4     2     3   ar
     5     2     7    1
     6     3     4   ar
     7     3    30    1
     8     4     5   ar
     9     4     8    1
    10     5     6   ar
    11     5     9    1
    12     6    10    1
    13     8    11    1
    14     8    12    1
    15     8    28    1
    16    11    13    1
    17    11    26    1
    18    11    27    1
    19    13    14    1
    20    14    15    1
    21    14    16    1
    22    14    31    1
    23    16    17    1
    24    16    20    2
    25    17    18    1
    26    17    19    1
    27    17    32    1
    28    20    21    1
    29    20    22    1
    30    22    23    1
    31    22    24    1
    32    22    25    1
    33    32    33    1
    34    32    34    1
    35    13    35    1
    36    35    36    1
    37    13    37    1
    38    32    38    1
    39    38    39    1
    40    38    40    1
    41    38    41    1
@<TRIPOS>SUBSTRUCTURE
     1 1           1 GROUP             0 ****  ****    0  
@<TRIPOS>MOLECULE
Molecule Name_00001_00461
    41    41     1     0     0
SMALL
NO_CHARGES
****
Generated from the CSD

@<TRIPOS>ATOM
     1 C5      -3.6598  -1.1358   1.4238   C.ar      1 1      0.0000
     2 C4      -4.1538   0.0784   0.9983   C.ar      1 1      0.0000
     3 C3      -3.4745   0.8072   0.0364   C.ar      1 1      0.0000
     4 C8      -2.2936   0.3315  -0.5126   C.ar      1 1      0.0000
     5 C7      -1.8077  -0.8907  -0.0743   C.ar      1 1      0.0000
     6 C6      -2.4863  -1.6204   0.8875   C.ar      1 1      0.0000
     7 H4      -5.0771   0.4641   1.4178   H         1 1      0.0000
     8 C9      -1.5517   1.1278  -1.5586   C.3       1 1      0.0000
     9 H7      -0.8843  -1.2804  -0.4899   H         1 1      0.0000
    10 H6      -2.0933  -2.5756   1.2196   H         1 1      0.0000
    11 C10     -0.5787   2.1429  -0.9619   C.3       1 1      0.0000
    12 H9A     -0.9953   0.4368  -2.2039   H         1 1      0.0000
    13 C11      0.6365   1.5493  -0.2676   C.3       1 1      0.0000
    14 C12      1.6067   0.9183  -1.2602   C.3       1 1      0.0000
    15 H12A     2.2613   1.6989  -1.6672   H         1 1      0.0000
    16 C13      2.4516  -0.1562  -0.6461   C.2       1 1      0.0000
    17 C14      3.5007   0.2662   0.3381   C.3       1 1      0.0000
    18 H14B     3.8732   1.2576   0.0519   H         1 1      0.0000
    19 H14A     4.3452  -0.4319   0.2877   H         1 1      0.0000
    20 N        2.2596  -1.4237  -0.9531   N.pl3     1 1      0.0000
    21 HN       1.4659  -1.6289  -1.5597   H         1 1      0.0000
    22 C        2.9764  -2.5684  -0.4101   C.3       1 1      0.0000
    23 H1A      2.3158  -3.4277  -0.3159   H         1 1      0.0000
    24 H1C      3.8046  -2.8472  -1.0583   H         1 1      0.0000
    25 H1B      3.3792  -2.3408   0.5745   H         1 1      0.0000
    26 H10A    -0.2292   2.8007  -1.7672   H         1 1      0.0000
    27 H10B    -1.1238   2.7603  -0.2373   H         1 1      0.0000
    28 H9B     -2.2796   1.6572  -2.1858   H         1 1      0.0000
    29 H5      -4.1919  -1.7073   2.1771   H         1 1      0.0000
    30 H3      -3.8713   1.7623  -0.2915   H         1 1      0.0000
    31 H12B     1.0373   0.4915  -2.0951   H         1 1      0.0000
    32 C15      2.9968   0.3284   1.7681   C.3       1 1      0.0000
    33 H15A     2.6329  -0.6630   2.0648   H         1 1      0.0000
    34 H15C     2.1509   1.0249   1.8216   H         1 1      0.0000
    35 OH       1.3113   2.5833   0.4544   O.3       1 1      0.0000
    36 OH1      0.6939   2.9807   1.1169   H         1 1      0.0000
    37 H22      0.3006   0.7773   0.4420   H         1 1      0.0000
    38 C16      4.0676   0.7734   2.7371   C.3       1 1      0.0000
    39 H16C     4.4327   1.7655   2.4795   H         1 1      0.0000
    40 H16A     3.6785   0.8085   3.7525   H         1 1      0.0000
    41 H16B     4.9116   0.0870   2.7211   H         1 1      0.0000
@<TRIPOS>BOND
     1     1     2   ar
     2     1     6   ar
     3     1    29    1
     4     2     3   ar
     5     2     7    1
     6     3     4   ar
     7     3    30    1
     8     4     5   ar
     9     4     8    1
    10     5     6   ar
    11     5     9    1
    12     6    10    1
    13     8    11    1
    14     8    12    1
    15     8    28    1
    16    11    13    1
    17    11    26    1
    18    11    27    1
    19    13    14    1
    20    14    15    1
    21    14    16    1
    22    14    31    1
    23    16    17    1
    24    16    20    2
    25    17    18    1
    26    17    19    1
    27    17    32    1
    28    20    21    1
    29    20    22    1
    30    22    23    1
    31    22    24    1
    32    22    25    1
    33    32    33    1
    34    32    34    1
    35    13    35    1
    36    35    36    1
    37    13    37    1
    38    32    38    1
    39    38    39    1
    40    38    40    1
    41    38    41    1
@<TRIPOS>SUBSTRUCTURE
     1 1           1 GROUP             0 ****  ****    0  
@<TRIPOS>MOLECULE
Molecule Name_00001_00462
    41    41     1     0     0
SMALL
NO_CHARGES
****
Generated from the CSD

@<TRIPOS>ATOM
     1 C5      -4.7165   0.7556  -0.6297   C.ar      1 1      0.0000
     2 C4      -3.7314   1.6983  -0.4292   C.ar      1 1      0.0000
     3 C3      -2.4167   1.3028  -0.2470   C.ar      1 1      0.0000
     4 C8      -2.0702  -0.0395  -0.2637   C.ar      1 1      0.0000
     5 C7      -3.0715  -0.9769  -0.4651   C.ar      1 1      0.0000
     6 C6      -4.3865  -0.5824  -0.6474   C.ar      1 1      0.0000
     7 H4      -3.9864   2.7528  -0.4141   H         1 1      0.0000
     8 C9      -0.6375  -0.4705  -0.0617   C.3       1 1      0.0000
     9 H7      -2.8219  -2.0327  -0.4801   H         1 1      0.0000
    10 H6      -5.1586  -1.3283  -0.8046   H         1 1      0.0000
    11 C10     -0.2649  -0.6446   1.4093   C.3       1 1      0.0000
    12 H9A     -0.4741  -1.4200  -0.5862   H         1 1      0.0000
    13 C11      1.1504  -1.1355   1.6685   C.3       1 1      0.0000
    14 C12      2.1850  -0.0425   1.4237   C.3       1 1      0.0000
    15 H12A     3.1477  -0.3599   1.8431   H         1 1      0.0000
    16 C13      2.3661   0.2733  -0.0299   C.2       1 1      0.0000
    17 C14      2.6768   1.6936  -0.3958   C.3       1 1      0.0000
    18 H14B     2.0813   2.3596   0.2408   H         1 1      0.0000
    19 H14A     2.3757   1.8728  -1.4352   H         1 1      0.0000
    20 N        2.2713  -0.6728  -0.9428   N.pl3     1 1      0.0000
    21 HN       2.1491  -1.6251  -0.5991   H         1 1      0.0000
    22 C        2.4582  -0.5182  -2.3782   C.3       1 1      0.0000
    23 H1A      2.9180  -1.4071  -2.8051   H         1 1      0.0000
    24 H1C      1.5040  -0.3582  -2.8759   H         1 1      0.0000
    25 H1B      3.1000   0.3330  -2.5952   H         1 1      0.0000
    26 H10A    -0.3936   0.3205   1.9145   H         1 1      0.0000
    27 H10B    -0.9662  -1.3563   1.8621   H         1 1      0.0000
    28 H9B      0.0262   0.2780  -0.5119   H         1 1      0.0000
    29 H5      -5.7465   1.0651  -0.7728   H         1 1      0.0000
    30 H3      -1.6486   2.0526  -0.0893   H         1 1      0.0000
    31 H12B     1.8751   0.8681   1.9511   H         1 1      0.0000
    32 C15      4.1433   2.0505  -0.2385   C.3       1 1      0.0000
    33 H15A     4.3120   3.0603  -0.6324   H         1 1      0.0000
    34 H15C     4.7487   1.3545  -0.8321   H         1 1      0.0000
    35 OH       1.2483  -1.5780   3.0251   O.3       1 1      0.0000
    36 OH1      0.5957  -2.3039   3.1837   H         1 1      0.0000
    37 H22      1.3625  -1.9832   0.9987   H         1 1      0.0000
    38 C16      4.5971   1.9984   1.2020   C.3       1 1      0.0000
    39 H16C     4.5858   0.9757   1.5732   H         1 1      0.0000
    40 H16A     5.6096   2.3839   1.3016   H         1 1      0.0000
    41 H16B     3.9434   2.5956   1.8342   H         1 1      0.0000
@<TRIPOS>BOND
     1     1     2   ar
     2     1     6   ar
     3     1    29    1
     4     2     3   ar
     5     2     7    1
     6     3     4   ar
     7     3    30    1
     8     4     5   ar
     9     4     8    1
    10     5     6   ar
    11     5     9    1
    12     6    10    1
    13     8    11    1
    14     8    12    1
    15     8    28    1
    16    11    13    1
    17    11    26    1
    18    11    27    1
    19    13    14    1
    20    14    15    1
    21    14    16    1
    22    14    31    1
    23    16    17    1
    24    16    20    2
    25    17    18    1
    26    17    19    1
    27    17    32    1
    28    20    21    1
    29    20    22    1
    30    22    23    1
    31    22    24    1
    32    22    25    1
    33    32    33    1
    34    32    34    1
    35    13    35    1
    36    35    36    1
    37    13    37    1
    38    32    38    1
    39    38    39    1
    40    38    40    1
    41    38    41    1
@<TRIPOS>SUBSTRUCTURE
     1 1           1 GROUP             0 ****  ****    0  
@<TRIPOS>MOLECULE
Molecule Name_00001_00463
    41    41     1     0     0
SMALL
NO_CHARGES
****
Generated from the CSD

@<TRIPOS>ATOM
     1 C5      -4.6795  -0.0792  -1.0142   C.ar      1 1      0.0000
     2 C4      -3.6819   0.6763  -1.5916   C.ar      1 1      0.0000
     3 C3      -2.3916   0.6239  -1.0913   C.ar      1 1      0.0000
     4 C8      -2.0821  -0.1846  -0.0084   C.ar      1 1      0.0000
     5 C7      -3.0957  -0.9382   0.5632   C.ar      1 1      0.0000
     6 C6      -4.3863  -0.8865   0.0636   C.ar      1 1      0.0000
     7 H4      -3.9080   1.3137  -2.4401   H         1 1      0.0000
     8 C9      -0.6762  -0.2390   0.5387   C.3       1 1      0.0000
     9 H7      -2.8751  -1.5764   1.4125   H         1 1      0.0000
    10 H6      -5.1684  -1.4829   0.5218   H         1 1      0.0000
    11 C10     -0.3948   0.8434   1.5790   C.3       1 1      0.0000
    12 H9A     -0.5090  -1.2232   0.9934   H         1 1      0.0000
    13 C11      0.9887   0.7984   2.2073   C.3       1 1      0.0000
    14 C12      2.0658   1.2897   1.2464   C.3       1 1      0.0000
    15 H12A     2.9933   1.4633   1.8059   H         1 1      0.0000
    16 C13      2.3399   0.3228   0.1348   C.2       1 1      0.0000
    17 C14      2.7108   0.8920  -1.2016   C.3       1 1      0.0000
    18 H14B     2.0933   1.7789  -1.3902   H         1 1      0.0000
    19 H14A     2.4820   0.1572  -1.9832   H         1 1      0.0000
    20 N        2.2723  -0.9776   0.3396   N.pl3     1 1      0.0000
    21 HN       2.1038  -1.2781   1.2995   H         1 1      0.0000
    22 C        2.5466  -2.0265  -0.6317   C.3       1 1      0.0000
    23 H1A      3.0268  -2.8782  -0.1543   H         1 1      0.0000
    24 H1C      1.6252  -2.3731  -1.0951   H         1 1      0.0000
    25 H1B      3.2048  -1.6630  -1.4179   H         1 1      0.0000
    26 H10A    -0.5259   1.8227   1.1023   H         1 1      0.0000
    27 H10B    -1.1408   0.7572   2.3787   H         1 1      0.0000
    28 H9B      0.0332  -0.1298  -0.2909   H         1 1      0.0000
    29 H5      -5.6904  -0.0386  -1.4061   H         1 1      0.0000
    30 H3      -1.6134   1.2230  -1.5525   H         1 1      0.0000
    31 H12B     1.7512   2.2485   0.8162   H         1 1      0.0000
    32 C15      4.1730   1.2842  -1.3060   C.3       1 1      0.0000
    33 H15A     4.4132   1.9938  -0.5047   H         1 1      0.0000
    34 H15C     4.3419   1.7917  -2.2638   H         1 1      0.0000
    35 OH       0.9952   1.6200   3.3780   O.3       1 1      0.0000
    36 OH1      0.3146   1.2916   4.0159   H         1 1      0.0000
    37 H22      1.2159  -0.2394   2.4965   H         1 1      0.0000
    38 C16      5.0972   0.0927  -1.2063   C.3       1 1      0.0000
    39 H16C     4.8957  -0.6195  -2.0038   H         1 1      0.0000
    40 H16A     6.1369   0.4035  -1.2841   H         1 1      0.0000
    41 H16B     4.9664  -0.4182  -0.2546   H         1 1      0.0000
@<TRIPOS>BOND
     1     1     2   ar
     2     1     6   ar
     3     1    29    1
     4     2     3   ar
     5     2     7    1
     6     3     4   ar
     7     3    30    1
     8     4     5   ar
     9     4     8    1
    10     5     6   ar
    11     5     9    1
    12     6    10    1
    13     8    11    1
    14     8    12    1
    15     8    28    1
    16    11    13    1
    17    11    26    1
    18    11    27    1
    19    13    14    1
    20    14    15    1
    21    14    16    1
    22    14    31    1
    23    16    17    1
    24    16    20    2
    25    17    18    1
    26    17    19    1
    27    17    32    1
    28    20    21    1
    29    20    22    1
    30    22    23    1
    31    22    24    1
    32    22    25    1
    33    32    33    1
    34    32    34    1
    35    13    35    1
    36    35    36    1
    37    13    37    1
    38    32    38    1
    39    38    39    1
    40    38    40    1
    41    38    41    1
@<TRIPOS>SUBSTRUCTURE
     1 1           1 GROUP             0 ****  ****    0  
@<TRIPOS>MOLECULE
Molecule Name_00001_00464
    41    41     1     0     0
SMALL
NO_CHARGES
****
Generated from the CSD

@<TRIPOS>ATOM
     1 C5      -4.2773   1.2095  -0.3261   C.ar      1 1      0.0000
     2 C4      -3.2258   1.9656   0.1450   C.ar      1 1      0.0000
     3 C3      -1.9536   1.4224   0.2121   C.ar      1 1      0.0000
     4 C8      -1.7164   0.1174  -0.1913   C.ar      1 1      0.0000
     5 C7      -2.7837  -0.6319  -0.6619   C.ar      1 1      0.0000
     6 C6      -4.0562  -0.0896  -0.7295   C.ar      1 1      0.0000
     7 H4      -3.3950   2.9888   0.4640   H         1 1      0.0000
     8 C9      -0.3302  -0.4754  -0.1149   C.3       1 1      0.0000
     9 H7      -2.6200  -1.6559  -0.9812   H         1 1      0.0000
    10 H6      -4.8810  -0.6889  -1.1008   H         1 1      0.0000
    11 C10     -0.0121  -1.0839   1.2495   C.3       1 1      0.0000
    12 H9A     -0.2321  -1.2518  -0.8836   H         1 1      0.0000
    13 C11      1.3498  -1.7496   1.3637   C.3       1 1      0.0000
    14 C12      2.4739  -0.7269   1.4877   C.3       1 1      0.0000
    15 H12A     3.3859  -1.2357   1.8236   H         1 1      0.0000
    16 C13      2.7582  -0.0147   0.2003   C.2       1 1      0.0000
    17 C14      3.2831   1.3870   0.2864   C.3       1 1      0.0000
    18 H14B     3.8104   1.6235  -0.6461   H         1 1      0.0000
    19 H14A     4.0117   1.4502   1.1038   H         1 1      0.0000
    20 N        2.5674  -0.6133  -0.9584   N.pl3     1 1      0.0000
    21 HN       2.2965  -1.5959  -0.9229   H         1 1      0.0000
    22 C        2.8336  -0.0593  -2.2780   C.3       1 1      0.0000
    23 H1A      3.0344  -0.8520  -2.9957   H         1 1      0.0000
    24 H1C      1.9797   0.5126  -2.6351   H         1 1      0.0000
    25 H1B      3.6971   0.6019  -2.2527   H         1 1      0.0000
    26 H10A    -0.0729  -0.2901   2.0041   H         1 1      0.0000
    27 H10B    -0.7822  -1.8292   1.4841   H         1 1      0.0000
    28 H9B      0.4049   0.3083  -0.3363   H         1 1      0.0000
    29 H5      -5.2741   1.6348  -0.3792   H         1 1      0.0000
    30 H3      -1.1325   2.0257   0.5851   H         1 1      0.0000
    31 H12B     2.2030   0.0117   2.2522   H         1 1      0.0000
    32 C15      2.1989   2.4249   0.5106   C.3       1 1      0.0000
    33 H15A     2.6657   3.3798   0.7822   H         1 1      0.0000
    34 H15C     1.5678   2.1103   1.3509   H         1 1      0.0000
    35 OH       1.3584  -2.5972   2.5158   O.3       1 1      0.0000
    36 OH1      0.6464  -3.2782   2.4303   H         1 1      0.0000
    37 H22      1.5238  -2.3630   0.4662   H         1 1      0.0000
    38 C16      1.3333   2.6265  -0.7116   C.3       1 1      0.0000
    39 H16C     1.2892   1.7171  -1.3072   H         1 1      0.0000
    40 H16A     0.3182   2.8938  -0.4254   H         1 1      0.0000
    41 H16B     1.7297   3.4229  -1.3379   H         1 1      0.0000
@<TRIPOS>BOND
     1     1     2   ar
     2     1     6   ar
     3     1    29    1
     4     2     3   ar
     5     2     7    1
     6     3     4   ar
     7     3    30    1
     8     4     5   ar
     9     4     8    1
    10     5     6   ar
    11     5     9    1
    12     6    10    1
    13     8    11    1
    14     8    12    1
    15     8    28    1
    16    11    13    1
    17    11    26    1
    18    11    27    1
    19    13    14    1
    20    14    15    1
    21    14    16    1
    22    14    31    1
    23    16    17    1
    24    16    20    2
    25    17    18    1
    26    17    19    1
    27    17    32    1
    28    20    21    1
    29    20    22    1
    30    22    23    1
    31    22    24    1
    32    22    25    1
    33    32    33    1
    34    32    34    1
    35    13    35    1
    36    35    36    1
    37    13    37    1
    38    32    38    1
    39    38    39    1
    40    38    40    1
    41    38    41    1
@<TRIPOS>SUBSTRUCTURE
     1 1           1 GROUP             0 ****  ****    0  
@<TRIPOS>MOLECULE
Molecule Name_00001_00465
    41    41     1     0     0
SMALL
NO_CHARGES
****
Generated from the CSD

@<TRIPOS>ATOM
     1 C5      -4.3005   1.1128  -0.3208   C.ar      1 1      0.0000
     2 C4      -3.2409   1.9394  -0.0152   C.ar      1 1      0.0000
     3 C3      -1.9559   1.4274   0.0511   C.ar      1 1      0.0000
     4 C8      -1.7137   0.0834  -0.1879   C.ar      1 1      0.0000
     5 C7      -2.7891  -0.7367  -0.4930   C.ar      1 1      0.0000
     6 C6      -4.0746  -0.2256  -0.5596   C.ar      1 1      0.0000
     7 H4      -3.4139   2.9937   0.1739   H         1 1      0.0000
     8 C9      -0.3132  -0.4750  -0.1123   C.3       1 1      0.0000
     9 H7      -2.6216  -1.7919  -0.6820   H         1 1      0.0000
    10 H6      -4.9056  -0.8804  -0.8002   H         1 1      0.0000
    11 C10      0.0838  -0.9109   1.2967   C.3       1 1      0.0000
    12 H9A     -0.2365  -1.3364  -0.7873   H         1 1      0.0000
    13 C11      1.4591  -1.5472   1.4179   C.3       1 1      0.0000
    14 C12      2.5754  -0.5152   1.3018   C.3       1 1      0.0000
    15 H12A     3.5191  -0.9696   1.6278   H         1 1      0.0000
    16 C13      2.7417   0.0088  -0.0923   C.2       1 1      0.0000
    17 C14      3.1730   1.4362  -0.2480   C.3       1 1      0.0000
    18 H14B     3.6937   1.5440  -1.2076   H         1 1      0.0000
    19 H14A     3.8872   1.6863   0.5460   H         1 1      0.0000
    20 N        2.5316  -0.7695  -1.1351   N.pl3     1 1      0.0000
    21 HN       2.3310  -1.7497  -0.9374   H         1 1      0.0000
    22 C        2.6891  -0.4076  -2.5363   C.3       1 1      0.0000
    23 H1A      2.2514  -1.1660  -3.1820   H         1 1      0.0000
    24 H1C      2.1987   0.5406  -2.7468   H         1 1      0.0000
    25 H1B      3.7413  -0.3089  -2.7943   H         1 1      0.0000
    26 H10A     0.0512  -0.0317   1.9520   H         1 1      0.0000
    27 H10B    -0.6624  -1.6280   1.6604   H         1 1      0.0000
    28 H9B      0.3935   0.2874  -0.4625   H         1 1      0.0000
    29 H5      -5.3074   1.5136  -0.3731   H         1 1      0.0000
    30 H3      -1.1285   2.0862   0.2931   H         1 1      0.0000
    31 H12B     2.3588   0.3235   1.9750   H         1 1      0.0000
    32 C15      2.0211   2.4230  -0.2043   C.3       1 1      0.0000
    33 H15A     1.2771   2.1413  -0.9596   H         1 1      0.0000
    34 H15C     2.3939   3.4228  -0.4589   H         1 1      0.0000
    35 OH       1.5581  -2.2039   2.6847   O.3       1 1      0.0000
    36 OH1      0.8510  -2.8915   2.7566   H         1 1      0.0000
    37 H22      1.5791  -2.2933   0.6172   H         1 1      0.0000
    38 C16      1.3563   2.4722   1.1519   C.3       1 1      0.0000
    39 H16C     2.0793   2.2844   1.9429   H         1 1      0.0000
    40 H16A     0.9085   3.4482   1.3268   H         1 1      0.0000
    41 H16B     0.5720   1.7216   1.2243   H         1 1      0.0000
@<TRIPOS>BOND
     1     1     2   ar
     2     1     6   ar
     3     1    29    1
     4     2     3   ar
     5     2     7    1
     6     3     4   ar
     7     3    30    1
     8     4     5   ar
     9     4     8    1
    10     5     6   ar
    11     5     9    1
    12     6    10    1
    13     8    11    1
    14     8    12    1
    15     8    28    1
    16    11    13    1
    17    11    26    1
    18    11    27    1
    19    13    14    1
    20    14    15    1
    21    14    16    1
    22    14    31    1
    23    16    17    1
    24    16    20    2
    25    17    18    1
    26    17    19    1
    27    17    32    1
    28    20    21    1
    29    20    22    1
    30    22    23    1
    31    22    24    1
    32    22    25    1
    33    32    33    1
    34    32    34    1
    35    13    35    1
    36    35    36    1
    37    13    37    1
    38    32    38    1
    39    38    39    1
    40    38    40    1
    41    38    41    1
@<TRIPOS>SUBSTRUCTURE
     1 1           1 GROUP             0 ****  ****    0  
@<TRIPOS>MOLECULE
Molecule Name_00001_00466
    41    41     1     0     0
SMALL
NO_CHARGES
****
Generated from the CSD

@<TRIPOS>ATOM
     1 C5      -3.6868   2.1485   0.5358   C.ar      1 1      0.0000
     2 C4      -2.8197   1.9697  -0.5204   C.ar      1 1      0.0000
     3 C3      -2.2537   0.7273  -0.7531   C.ar      1 1      0.0000
     4 C8      -2.5478  -0.3518   0.0662   C.ar      1 1      0.0000
     5 C7      -3.4206  -0.1571   1.1256   C.ar      1 1      0.0000
     6 C6      -3.9872   1.0849   1.3591   C.ar      1 1      0.0000
     7 H4      -2.5799   2.8042  -1.1711   H         1 1      0.0000
     8 C9      -1.9281  -1.7050  -0.1858   C.3       1 1      0.0000
     9 H7      -3.6629  -0.9881   1.7798   H         1 1      0.0000
    10 H6      -4.6690   1.2209   2.1921   H         1 1      0.0000
    11 C10     -0.5684  -1.8774   0.4884   C.3       1 1      0.0000
    12 H9A     -2.6095  -2.4825   0.1812   H         1 1      0.0000
    13 C11      0.5566  -1.0346  -0.0906   C.3       1 1      0.0000
    14 C12      1.8707  -1.2535   0.6511   C.3       1 1      0.0000
    15 H12A     2.1600  -2.3081   0.5641   H         1 1      0.0000
    16 C13      2.9840  -0.3971   0.1291   C.2       1 1      0.0000
    17 C14      2.6414   0.9988  -0.2975   C.3       1 1      0.0000
    18 H14B     1.7047   0.9728  -0.8678   H         1 1      0.0000
    19 H14A     3.4256   1.3749  -0.9658   H         1 1      0.0000
    20 N        4.2176  -0.8573   0.0681   N.pl3     1 1      0.0000
    21 HN       4.3769  -1.7837   0.4638   H         1 1      0.0000
    22 C        5.3963  -0.1298  -0.3799   C.3       1 1      0.0000
    23 H1A      6.2742  -0.4311   0.1878   H         1 1      0.0000
    24 H1C      5.5911  -0.3228  -1.4327   H         1 1      0.0000
    25 H1B      5.2610   0.9420  -0.2517   H         1 1      0.0000
    26 H10A    -0.6758  -1.6269   1.5510   H         1 1      0.0000
    27 H10B    -0.2796  -2.9335   0.4203   H         1 1      0.0000
    28 H9B     -1.8109  -1.8472  -1.2672   H         1 1      0.0000
    29 H5      -4.1306   3.1216   0.7182   H         1 1      0.0000
    30 H3      -1.5718   0.5969  -1.5869   H         1 1      0.0000
    31 H12B     1.7213  -1.0352   1.7158   H         1 1      0.0000
    32 C15      2.4791   1.9622   0.8637   C.3       1 1      0.0000
    33 H15A     3.4122   1.9916   1.4399   H         1 1      0.0000
    34 H15C     1.6873   1.5948   1.5281   H         1 1      0.0000
    35 OH       0.7334  -1.3773  -1.4680   O.3       1 1      0.0000
    36 OH1     -0.0903  -1.1608  -1.9706   H         1 1      0.0000
    37 H22      0.2797   0.0286  -0.0185   H         1 1      0.0000
    38 C16      2.1344   3.3610   0.4074   C.3       1 1      0.0000
    39 H16C     1.1998   3.3656  -0.1495   H         1 1      0.0000
    40 H16A     2.0245   4.0285   1.2595   H         1 1      0.0000
    41 H16B     2.9150   3.7598  -0.2371   H         1 1      0.0000
@<TRIPOS>BOND
     1     1     2   ar
     2     1     6   ar
     3     1    29    1
     4     2     3   ar
     5     2     7    1
     6     3     4   ar
     7     3    30    1
     8     4     5   ar
     9     4     8    1
    10     5     6   ar
    11     5     9    1
    12     6    10    1
    13     8    11    1
    14     8    12    1
    15     8    28    1
    16    11    13    1
    17    11    26    1
    18    11    27    1
    19    13    14    1
    20    14    15    1
    21    14    16    1
    22    14    31    1
    23    16    17    1
    24    16    20    2
    25    17    18    1
    26    17    19    1
    27    17    32    1
    28    20    21    1
    29    20    22    1
    30    22    23    1
    31    22    24    1
    32    22    25    1
    33    32    33    1
    34    32    34    1
    35    13    35    1
    36    35    36    1
    37    13    37    1
    38    32    38    1
    39    38    39    1
    40    38    40    1
    41    38    41    1
@<TRIPOS>SUBSTRUCTURE
     1 1           1 GROUP             0 ****  ****    0  
@<TRIPOS>MOLECULE
Molecule Name_00001_00467
    41    41     1     0     0
SMALL
NO_CHARGES
****
Generated from the CSD

@<TRIPOS>ATOM
     1 C5      -3.7775  -0.2114   1.8561   C.ar      1 1      0.0000
     2 C4      -2.7439   0.6979   1.9210   C.ar      1 1      0.0000
     3 C3      -2.0837   1.0840   0.7664   C.ar      1 1      0.0000
     4 C8      -2.4487   0.5671  -0.4671   C.ar      1 1      0.0000
     5 C7      -3.4894  -0.3476  -0.5173   C.ar      1 1      0.0000
     6 C6      -4.1502  -0.7344   0.6367   C.ar      1 1      0.0000
     7 H4      -2.4467   1.1121   2.8787   H         1 1      0.0000
     8 C9      -1.7267   0.9858  -1.7250   C.3       1 1      0.0000
     9 H7      -3.7898  -0.7655  -1.4725   H         1 1      0.0000
    10 H6      -4.9632  -1.4508   0.5806   H         1 1      0.0000
    11 C10     -0.4858   0.1431  -2.0134   C.3       1 1      0.0000
    12 H9A     -2.4165   0.9075  -2.5743   H         1 1      0.0000
    13 C11      0.6720   0.3377  -1.0476   C.3       1 1      0.0000
    14 C12      1.8594  -0.5528  -1.3966   C.3       1 1      0.0000
    15 H12A     2.2846  -0.2246  -2.3532   H         1 1      0.0000
    16 C13      2.9329  -0.5286  -0.3513   C.2       1 1      0.0000
    17 C14      2.5022  -0.5753   1.0839   C.3       1 1      0.0000
    18 H14B     3.2857  -1.0703   1.6708   H         1 1      0.0000
    19 H14A     1.5923  -1.1819   1.1683   H         1 1      0.0000
    20 N        4.2055  -0.4859  -0.6919   N.pl3     1 1      0.0000
    21 HN       4.4113  -0.5495  -1.6888   H         1 1      0.0000
    22 C        5.3481  -0.4943   0.2100   C.3       1 1      0.0000
    23 H1A      6.2491  -0.8097  -0.3120   H         1 1      0.0000
    24 H1C      5.5235   0.4986   0.6189   H         1 1      0.0000
    25 H1B      5.1805  -1.1773   1.0400   H         1 1      0.0000
    26 H10A    -0.7754  -0.9148  -1.9966   H         1 1      0.0000
    27 H10B    -0.1350   0.3787  -3.0258   H         1 1      0.0000
    28 H9B     -1.4300   2.0378  -1.6318   H         1 1      0.0000
    29 H5      -4.2952  -0.5140   2.7603   H         1 1      0.0000
    30 H3      -1.2708   1.8000   0.8280   H         1 1      0.0000
    31 H12B     1.5081  -1.5841  -1.5239   H         1 1      0.0000
    32 C15      2.2383   0.7952   1.6799   C.3       1 1      0.0000
    33 H15A     1.4264   1.2792   1.1233   H         1 1      0.0000
    34 H15C     3.1364   1.4152   1.5681   H         1 1      0.0000
    35 OH       1.0854   1.7064  -1.0863   O.3       1 1      0.0000
    36 OH1      0.3581   2.2811  -0.7417   H         1 1      0.0000
    37 H22      0.3318   0.0947  -0.0290   H         1 1      0.0000
    38 C16      1.8633   0.7246   3.1421   C.3       1 1      0.0000
    39 H16C     2.6614   0.2675   3.7233   H         1 1      0.0000
    40 H16A     1.6802   1.7198   3.5418   H         1 1      0.0000
    41 H16B     0.9611   0.1324   3.2807   H         1 1      0.0000
@<TRIPOS>BOND
     1     1     2   ar
     2     1     6   ar
     3     1    29    1
     4     2     3   ar
     5     2     7    1
     6     3     4   ar
     7     3    30    1
     8     4     5   ar
     9     4     8    1
    10     5     6   ar
    11     5     9    1
    12     6    10    1
    13     8    11    1
    14     8    12    1
    15     8    28    1
    16    11    13    1
    17    11    26    1
    18    11    27    1
    19    13    14    1
    20    14    15    1
    21    14    16    1
    22    14    31    1
    23    16    17    1
    24    16    20    2
    25    17    18    1
    26    17    19    1
    27    17    32    1
    28    20    21    1
    29    20    22    1
    30    22    23    1
    31    22    24    1
    32    22    25    1
    33    32    33    1
    34    32    34    1
    35    13    35    1
    36    35    36    1
    37    13    37    1
    38    32    38    1
    39    38    39    1
    40    38    40    1
    41    38    41    1
@<TRIPOS>SUBSTRUCTURE
     1 1           1 GROUP             0 ****  ****    0  
@<TRIPOS>MOLECULE
Molecule Name_00001_00468
    41    41     1     0     0
SMALL
NO_CHARGES
****
Generated from the CSD

@<TRIPOS>ATOM
     1 C5      -4.1032  -1.2275   0.9698   C.ar      1 1      0.0000
     2 C4      -3.0983  -0.6066   1.6799   C.ar      1 1      0.0000
     3 C3      -2.3428   0.3917   1.0879   C.ar      1 1      0.0000
     4 C8      -2.5825   0.7824  -0.2206   C.ar      1 1      0.0000
     5 C7      -3.5956   0.1484  -0.9233   C.ar      1 1      0.0000
     6 C6      -4.3518  -0.8500  -0.3321   C.ar      1 1      0.0000
     7 H4      -2.8987  -0.9007   2.7050   H         1 1      0.0000
     8 C9      -1.7566   1.8684  -0.8666   C.3       1 1      0.0000
     9 H7      -3.7986   0.4381  -1.9490   H         1 1      0.0000
    10 H6      -5.1416  -1.3361  -0.8953   H         1 1      0.0000
    11 C10     -0.4778   1.3434  -1.5163   C.3       1 1      0.0000
    12 H9A     -2.3638   2.3714  -1.6292   H         1 1      0.0000
    13 C11      0.5823   0.8374  -0.5513   C.3       1 1      0.0000
    14 C12      1.8144   0.3158  -1.2825   C.3       1 1      0.0000
    15 H12A     2.3722   1.1652  -1.6959   H         1 1      0.0000
    16 C13      2.7236  -0.4808  -0.3969   C.2       1 1      0.0000
    17 C14      2.8233  -0.0697   1.0414   C.3       1 1      0.0000
    18 H14B     3.2123  -0.9145   1.6230   H         1 1      0.0000
    19 H14A     1.8204   0.1600   1.4216   H         1 1      0.0000
    20 N        3.3922  -1.5133  -0.8705   N.pl3     1 1      0.0000
    21 HN       3.1951  -1.7783  -1.8354   H         1 1      0.0000
    22 C        4.2774  -2.3938  -0.1220   C.3       1 1      0.0000
    23 H1A      4.4450  -3.3228  -0.6630   H         1 1      0.0000
    24 H1C      5.2425  -1.9196   0.0438   H         1 1      0.0000
    25 H1B      3.8497  -2.6387   0.8478   H         1 1      0.0000
    26 H10A    -0.7464   0.5243  -2.1947   H         1 1      0.0000
    27 H10B    -0.0403   2.1485  -2.1196   H         1 1      0.0000
    28 H9B     -1.4909   2.6134  -0.1065   H         1 1      0.0000
    29 H5      -4.6955  -2.0094   1.4334   H         1 1      0.0000
    30 H3      -1.5535   0.8739   1.6550   H         1 1      0.0000
    31 H12B     1.4928  -0.3127  -2.1221   H         1 1      0.0000
    32 C15      3.7227   1.1320   1.2648   C.3       1 1      0.0000
    33 H15A     3.3414   1.9799   0.6826   H         1 1      0.0000
    34 H15C     4.7302   0.9005   0.8978   H         1 1      0.0000
    35 OH       0.9700   1.9063   0.3165   O.3       1 1      0.0000
    36 OH1      0.1933   2.1896   0.8591   H         1 1      0.0000
    37 H22      0.1550   0.0223   0.0530   H         1 1      0.0000
    38 C16      3.8040   1.5275   2.7211   C.3       1 1      0.0000
    39 H16C     4.2005   0.7109   3.3209   H         1 1      0.0000
    40 H16A     4.4542   2.3901   2.8507   H         1 1      0.0000
    41 H16B     2.8195   1.7842   3.1065   H         1 1      0.0000
@<TRIPOS>BOND
     1     1     2   ar
     2     1     6   ar
     3     1    29    1
     4     2     3   ar
     5     2     7    1
     6     3     4   ar
     7     3    30    1
     8     4     5   ar
     9     4     8    1
    10     5     6   ar
    11     5     9    1
    12     6    10    1
    13     8    11    1
    14     8    12    1
    15     8    28    1
    16    11    13    1
    17    11    26    1
    18    11    27    1
    19    13    14    1
    20    14    15    1
    21    14    16    1
    22    14    31    1
    23    16    17    1
    24    16    20    2
    25    17    18    1
    26    17    19    1
    27    17    32    1
    28    20    21    1
    29    20    22    1
    30    22    23    1
    31    22    24    1
    32    22    25    1
    33    32    33    1
    34    32    34    1
    35    13    35    1
    36    35    36    1
    37    13    37    1
    38    32    38    1
    39    38    39    1
    40    38    40    1
    41    38    41    1
@<TRIPOS>SUBSTRUCTURE
     1 1           1 GROUP             0 ****  ****    0  
@<TRIPOS>MOLECULE
Molecule Name_00001_00469
    41    41     1     0     0
SMALL
NO_CHARGES
****
Generated from the CSD

@<TRIPOS>ATOM
     1 C5      -4.4015  -1.2226   0.6461   C.ar      1 1      0.0000
     2 C4      -4.5048   0.0630   1.1317   C.ar      1 1      0.0000
     3 C3      -3.4498   0.9483   0.9863   C.ar      1 1      0.0000
     4 C8      -2.2790   0.5602   0.3534   C.ar      1 1      0.0000
     5 C7      -2.1885  -0.7364  -0.1290   C.ar      1 1      0.0000
     6 C6      -3.2429  -1.6225   0.0158   C.ar      1 1      0.0000
     7 H4      -5.4148   0.3823   1.6290   H         1 1      0.0000
     8 C9      -1.1280   1.5245   0.1981   C.3       1 1      0.0000
     9 H7      -1.2803  -1.0609  -0.6262   H         1 1      0.0000
    10 H6      -3.1568  -2.6337  -0.3678   H         1 1      0.0000
    11 C10      0.0720   0.9154  -0.5244   C.3       1 1      0.0000
    12 H9A     -1.4727   2.4033  -0.3608   H         1 1      0.0000
    13 C11      1.2613   1.8443  -0.7084   C.3       1 1      0.0000
    14 C12      2.4186   1.1522  -1.4198   C.3       1 1      0.0000
    15 H12A     3.2015   1.8905  -1.6327   H         1 1      0.0000
    16 C13      3.0089   0.0320  -0.6184   C.2       1 1      0.0000
    17 C14      3.8749   0.3983   0.5494   C.3       1 1      0.0000
    18 H14B     4.4055   1.3296   0.3159   H         1 1      0.0000
    19 H14A     4.6292  -0.3839   0.6990   H         1 1      0.0000
    20 N        2.7556  -1.2244  -0.9262   N.pl3     1 1      0.0000
    21 HN       2.0841  -1.3815  -1.6776   H         1 1      0.0000
    22 C        3.2283  -2.4056  -0.2188   C.3       1 1      0.0000
    23 H1A      2.3943  -3.0417   0.0698   H         1 1      0.0000
    24 H1C      3.8976  -2.9891  -0.8476   H         1 1      0.0000
    25 H1B      3.7692  -2.1258   0.6827   H         1 1      0.0000
    26 H10A     0.4049   0.0359   0.0404   H         1 1      0.0000
    27 H10B    -0.2565   0.5739  -1.5138   H         1 1      0.0000
    28 H9B     -0.8115   1.8642   1.1920   H         1 1      0.0000
    29 H5      -5.2279  -1.9164   0.7595   H         1 1      0.0000
    30 H3      -3.5407   1.9582   1.3726   H         1 1      0.0000
    31 H12B     2.0635   0.7563  -2.3793   H         1 1      0.0000
    32 C15      3.0993   0.5888   1.8398   C.3       1 1      0.0000
    33 H15A     2.3385   1.3650   1.6909   H         1 1      0.0000
    34 H15C     3.7838   0.9374   2.6229   H         1 1      0.0000
    35 OH       0.8509   2.9793  -1.4760   O.3       1 1      0.0000
    36 OH1      0.1194   3.4496  -1.0052   H         1 1      0.0000
    37 H22      1.6040   2.1855   0.2807   H         1 1      0.0000
    38 C16      2.4258  -0.6833   2.2999   C.3       1 1      0.0000
    39 H16C     3.1646  -1.4310   2.5807   H         1 1      0.0000
    40 H16A     1.7910  -0.4933   3.1628   H         1 1      0.0000
    41 H16B     1.8062  -1.0997   1.5084   H         1 1      0.0000
@<TRIPOS>BOND
     1     1     2   ar
     2     1     6   ar
     3     1    29    1
     4     2     3   ar
     5     2     7    1
     6     3     4   ar
     7     3    30    1
     8     4     5   ar
     9     4     8    1
    10     5     6   ar
    11     5     9    1
    12     6    10    1
    13     8    11    1
    14     8    12    1
    15     8    28    1
    16    11    13    1
    17    11    26    1
    18    11    27    1
    19    13    14    1
    20    14    15    1
    21    14    16    1
    22    14    31    1
    23    16    17    1
    24    16    20    2
    25    17    18    1
    26    17    19    1
    27    17    32    1
    28    20    21    1
    29    20    22    1
    30    22    23    1
    31    22    24    1
    32    22    25    1
    33    32    33    1
    34    32    34    1
    35    13    35    1
    36    35    36    1
    37    13    37    1
    38    32    38    1
    39    38    39    1
    40    38    40    1
    41    38    41    1
@<TRIPOS>SUBSTRUCTURE
     1 1           1 GROUP             0 ****  ****    0  
@<TRIPOS>MOLECULE
Molecule Name_00001_00470
    41    41     1     0     0
SMALL
NO_CHARGES
****
Generated from the CSD

@<TRIPOS>ATOM
     1 C5      -4.8198  -1.2783  -0.3099   C.ar      1 1      0.0000
     2 C4      -4.9820  -0.3230   0.6701   C.ar      1 1      0.0000
     3 C3      -3.9231   0.4960   1.0252   C.ar      1 1      0.0000
     4 C8      -2.6895   0.3710   0.4049   C.ar      1 1      0.0000
     5 C7      -2.5404  -0.5950  -0.5783   C.ar      1 1      0.0000
     6 C6      -3.5986  -1.4145  -0.9341   C.ar      1 1      0.0000
     7 H4      -5.9413  -0.2123   1.1646   H         1 1      0.0000
     8 C9      -1.5347   1.2617   0.7945   C.3       1 1      0.0000
     9 H7      -1.5828  -0.7105  -1.0752   H         1 1      0.0000
    10 H6      -3.4660  -2.1654  -1.7060   H         1 1      0.0000
    11 C10     -0.2612   0.9747   0.0013   C.3       1 1      0.0000
    12 H9A     -1.8240   2.3083   0.6385   H         1 1      0.0000
    13 C11      0.9349   1.8442   0.3538   C.3       1 1      0.0000
    14 C12      2.1654   1.4792  -0.4693   C.3       1 1      0.0000
    15 H12A     2.9360   2.2458  -0.3213   H         1 1      0.0000
    16 C13      2.7326   0.1403  -0.1069   C.2       1 1      0.0000
    17 C14      3.4441   0.0232   1.2075   C.3       1 1      0.0000
    18 H14B     3.4120  -1.0238   1.5333   H         1 1      0.0000
    19 H14A     2.9140   0.6203   1.9595   H         1 1      0.0000
    20 N        2.5902  -0.8933  -0.9124   N.pl3     1 1      0.0000
    21 HN       2.0142  -0.7472  -1.7413   H         1 1      0.0000
    22 C        3.0546  -2.2522  -0.6741   C.3       1 1      0.0000
    23 H1A      2.5473  -2.9541  -1.3327   H         1 1      0.0000
    24 H1C      4.1246  -2.3309  -0.8548   H         1 1      0.0000
    25 H1B      2.8620  -2.5520   0.3537   H         1 1      0.0000
    26 H10A     0.0157  -0.0747   0.1611   H         1 1      0.0000
    27 H10B    -0.4811   1.1048  -1.0655   H         1 1      0.0000
    28 H9B     -1.3271   1.1285   1.8634   H         1 1      0.0000
    29 H5      -5.6492  -1.9200  -0.5885   H         1 1      0.0000
    30 H3      -4.0607   1.2446   1.7983   H         1 1      0.0000
    31 H12B     1.8967   1.4771  -1.5329   H         1 1      0.0000
    32 C15      4.8924   0.4728   1.1521   C.3       1 1      0.0000
    33 H15A     5.3109   0.4639   2.1661   H         1 1      0.0000
    34 H15C     4.9351   1.5045   0.7818   H         1 1      0.0000
    35 OH       0.6009   3.2142   0.1147   O.3       1 1      0.0000
    36 OH1     -0.1799   3.4652   0.6672   H         1 1      0.0000
    37 H22      1.1691   1.7134   1.4216   H         1 1      0.0000
    38 C16      5.7354  -0.4094   0.2605   C.3       1 1      0.0000
    39 H16C     5.3555  -0.4026  -0.7590   H         1 1      0.0000
    40 H16A     6.7669  -0.0639   0.2402   H         1 1      0.0000
    41 H16B     5.7291  -1.4371   0.6177   H         1 1      0.0000
@<TRIPOS>BOND
     1     1     2   ar
     2     1     6   ar
     3     1    29    1
     4     2     3   ar
     5     2     7    1
     6     3     4   ar
     7     3    30    1
     8     4     5   ar
     9     4     8    1
    10     5     6   ar
    11     5     9    1
    12     6    10    1
    13     8    11    1
    14     8    12    1
    15     8    28    1
    16    11    13    1
    17    11    26    1
    18    11    27    1
    19    13    14    1
    20    14    15    1
    21    14    16    1
    22    14    31    1
    23    16    17    1
    24    16    20    2
    25    17    18    1
    26    17    19    1
    27    17    32    1
    28    20    21    1
    29    20    22    1
    30    22    23    1
    31    22    24    1
    32    22    25    1
    33    32    33    1
    34    32    34    1
    35    13    35    1
    36    35    36    1
    37    13    37    1
    38    32    38    1
    39    38    39    1
    40    38    40    1
    41    38    41    1
@<TRIPOS>SUBSTRUCTURE
     1 1           1 GROUP             0 ****  ****    0  
@<TRIPOS>MOLECULE
Molecule Name_00001_00471
    41    41     1     0     0
SMALL
NO_CHARGES
****
Generated from the CSD

@<TRIPOS>ATOM
     1 C5      -4.8639  -1.0517  -0.5353   C.ar      1 1      0.0000
     2 C4      -4.9572  -0.3406   0.6416   C.ar      1 1      0.0000
     3 C3      -3.8519   0.3292   1.1391   C.ar      1 1      0.0000
     4 C8      -2.6400   0.2974   0.4665   C.ar      1 1      0.0000
     5 C7      -2.5603  -0.4228  -0.7155   C.ar      1 1      0.0000
     6 C6      -3.6650  -1.0929  -1.2139   C.ar      1 1      0.0000
     7 H4      -5.8988  -0.3055   1.1796   H         1 1      0.0000
     8 C9      -1.4345   1.0249   1.0108   C.3       1 1      0.0000
     9 H7      -1.6207  -0.4618  -1.2568   H         1 1      0.0000
    10 H6      -3.5866  -1.6517  -2.1407   H         1 1      0.0000
    11 C10     -0.1946   0.8735   0.1317   C.3       1 1      0.0000
    12 H9A     -1.6756   2.0907   1.1074   H         1 1      0.0000
    13 C11      1.0503   1.5872   0.6337   C.3       1 1      0.0000
    14 C12      2.2427   1.3687  -0.2910   C.3       1 1      0.0000
    15 H12A     3.0531   2.0473   0.0026   H         1 1      0.0000
    16 C13      2.7516  -0.0405  -0.2624   C.2       1 1      0.0000
    17 C14      3.4776  -0.4891   0.9702   C.3       1 1      0.0000
    18 H14B     3.3626  -1.5754   1.0709   H         1 1      0.0000
    19 H14A     3.0164  -0.0243   1.8502   H         1 1      0.0000
    20 N        2.5475  -0.8523  -1.2806   N.pl3     1 1      0.0000
    21 HN       1.9660  -0.4939  -2.0379   H         1 1      0.0000
    22 C        2.9508  -2.2479  -1.3748   C.3       1 1      0.0000
    23 H1A      2.3602  -2.7702  -2.1245   H         1 1      0.0000
    24 H1C      3.9994  -2.3280  -1.6535   H         1 1      0.0000
    25 H1B      2.8142  -2.7549  -0.4220   H         1 1      0.0000
    26 H10A     0.0340  -0.1954   0.0386   H         1 1      0.0000
    27 H10B    -0.4316   1.2541  -0.8695   H         1 1      0.0000
    28 H9B     -1.2100   0.6413   2.0137   H         1 1      0.0000
    29 H5      -5.7297  -1.5763  -0.9256   H         1 1      0.0000
    30 H3      -3.9354   0.8857   2.0668   H         1 1      0.0000
    31 H12B     1.9507   1.6222  -1.3176   H         1 1      0.0000
    32 C15      4.9577  -0.1545   0.9543   C.3       1 1      0.0000
    33 H15A     5.4105  -0.5687   0.0450   H         1 1      0.0000
    34 H15C     5.4433  -0.6294   1.8158   H         1 1      0.0000
    35 OH       0.7785   2.9885   0.7247   O.3       1 1      0.0000
    36 OH1      0.0234   3.1390   1.3453   H         1 1      0.0000
    37 H22      1.3014   1.2051   1.6352   H         1 1      0.0000
    38 C16      5.2119   1.3345   1.0004   C.3       1 1      0.0000
    39 H16C     4.5574   1.8152   1.7244   H         1 1      0.0000
    40 H16A     6.2416   1.5413   1.2845   H         1 1      0.0000
    41 H16B     5.0313   1.7868   0.0275   H         1 1      0.0000
@<TRIPOS>BOND
     1     1     2   ar
     2     1     6   ar
     3     1    29    1
     4     2     3   ar
     5     2     7    1
     6     3     4   ar
     7     3    30    1
     8     4     5   ar
     9     4     8    1
    10     5     6   ar
    11     5     9    1
    12     6    10    1
    13     8    11    1
    14     8    12    1
    15     8    28    1
    16    11    13    1
    17    11    26    1
    18    11    27    1
    19    13    14    1
    20    14    15    1
    21    14    16    1
    22    14    31    1
    23    16    17    1
    24    16    20    2
    25    17    18    1
    26    17    19    1
    27    17    32    1
    28    20    21    1
    29    20    22    1
    30    22    23    1
    31    22    24    1
    32    22    25    1
    33    32    33    1
    34    32    34    1
    35    13    35    1
    36    35    36    1
    37    13    37    1
    38    32    38    1
    39    38    39    1
    40    38    40    1
    41    38    41    1
@<TRIPOS>SUBSTRUCTURE
     1 1           1 GROUP             0 ****  ****    0  
@<TRIPOS>MOLECULE
Molecule Name_00001_00472
    41    41     1     0     0
SMALL
NO_CHARGES
****
Generated from the CSD

@<TRIPOS>ATOM
     1 C5      -4.5789   1.1557  -0.9314   C.ar      1 1      0.0000
     2 C4      -4.8432   0.0746  -0.1185   C.ar      1 1      0.0000
     3 C3      -3.8108  -0.5612   0.5507   C.ar      1 1      0.0000
     4 C8      -2.5020  -0.1242   0.4166   C.ar      1 1      0.0000
     5 C7      -2.2506   0.9636  -0.4053   C.ar      1 1      0.0000
     6 C6      -3.2823   1.6002  -1.0750   C.ar      1 1      0.0000
     7 H4      -5.8623  -0.2791  -0.0026   H         1 1      0.0000
     8 C9      -1.3765  -0.8196   1.1437   C.3       1 1      0.0000
     9 H7      -1.2331   1.3207  -0.5254   H         1 1      0.0000
    10 H6      -3.0693   2.4507  -1.7142   H         1 1      0.0000
    11 C10     -0.0096  -0.1947   0.8716   C.3       1 1      0.0000
    12 H9A     -1.5756  -0.7870   2.2220   H         1 1      0.0000
    13 C11      1.1613  -0.8567   1.5799   C.3       1 1      0.0000
    14 C12      2.4703  -0.1165   1.3281   C.3       1 1      0.0000
    15 H12A     3.2432  -0.5182   1.9950   H         1 1      0.0000
    16 C13      2.9412  -0.2313  -0.0898   C.2       1 1      0.0000
    17 C14      2.4193   0.7708  -1.0754   C.3       1 1      0.0000
    18 H14B     1.3869   1.0253  -0.8055   H         1 1      0.0000
    19 H14A     2.3983   0.3178  -2.0741   H         1 1      0.0000
    20 N        3.7959  -1.1705  -0.4431   N.pl3     1 1      0.0000
    21 HN       4.1692  -1.7507   0.3079   H         1 1      0.0000
    22 C        4.3632  -1.3767  -1.7677   C.3       1 1      0.0000
    23 H1A      5.3882  -1.7345  -1.6968   H         1 1      0.0000
    24 H1C      3.7855  -2.1120  -2.3241   H         1 1      0.0000
    25 H1B      4.3665  -0.4489  -2.3357   H         1 1      0.0000
    26 H10A     0.1765  -0.2286  -0.2089   H         1 1      0.0000
    27 H10B    -0.0448   0.8596   1.1729   H         1 1      0.0000
    28 H9B     -1.3540  -1.8735   0.8401   H         1 1      0.0000
    29 H5      -5.3875   1.6543  -1.4557   H         1 1      0.0000
    30 H3      -4.0291  -1.4118   1.1879   H         1 1      0.0000
    31 H12B     2.3349   0.9438   1.5748   H         1 1      0.0000
    32 C15      3.2383   2.0471  -1.1297   C.3       1 1      0.0000
    33 H15A     2.8749   2.6730  -1.9540   H         1 1      0.0000
    34 H15C     4.2852   1.7943  -1.3383   H         1 1      0.0000
    35 OH       0.9005  -0.8824   2.9860   O.3       1 1      0.0000
    36 OH1      0.1130  -1.4530   3.1656   H         1 1      0.0000
    37 H22      1.2609  -1.8907   1.2149   H         1 1      0.0000
    38 C16      3.1652   2.8333   0.1588   C.3       1 1      0.0000
    39 H16C     3.6634   2.2993   0.9653   H         1 1      0.0000
    40 H16A     3.6458   3.8030   0.0467   H         1 1      0.0000
    41 H16B     2.1304   2.9997   0.4509   H         1 1      0.0000
@<TRIPOS>BOND
     1     1     2   ar
     2     1     6   ar
     3     1    29    1
     4     2     3   ar
     5     2     7    1
     6     3     4   ar
     7     3    30    1
     8     4     5   ar
     9     4     8    1
    10     5     6   ar
    11     5     9    1
    12     6    10    1
    13     8    11    1
    14     8    12    1
    15     8    28    1
    16    11    13    1
    17    11    26    1
    18    11    27    1
    19    13    14    1
    20    14    15    1
    21    14    16    1
    22    14    31    1
    23    16    17    1
    24    16    20    2
    25    17    18    1
    26    17    19    1
    27    17    32    1
    28    20    21    1
    29    20    22    1
    30    22    23    1
    31    22    24    1
    32    22    25    1
    33    32    33    1
    34    32    34    1
    35    13    35    1
    36    35    36    1
    37    13    37    1
    38    32    38    1
    39    38    39    1
    40    38    40    1
    41    38    41    1
@<TRIPOS>SUBSTRUCTURE
     1 1           1 GROUP             0 ****  ****    0  
@<TRIPOS>MOLECULE
Molecule Name_00001_00473
    41    41     1     0     0
SMALL
NO_CHARGES
****
Generated from the CSD

@<TRIPOS>ATOM
     1 C5      -4.6375   1.0663  -1.0826   C.ar      1 1      0.0000
     2 C4      -4.9140  -0.0036  -0.2591   C.ar      1 1      0.0000
     3 C3      -3.8993  -0.5999   0.4709   C.ar      1 1      0.0000
     4 C8      -2.5962  -0.1339   0.3877   C.ar      1 1      0.0000
     5 C7      -2.3324   0.9422  -0.4456   C.ar      1 1      0.0000
     6 C6      -3.3464   1.5392  -1.1760   C.ar      1 1      0.0000
     7 H4      -5.9289  -0.3796  -0.1825   H         1 1      0.0000
     8 C9      -1.4899  -0.7863   1.1811   C.3       1 1      0.0000
     9 H7      -1.3191   1.3214  -0.5265   H         1 1      0.0000
    10 H6      -3.1237   2.3811  -1.8233   H         1 1      0.0000
    11 C10     -0.1268  -0.1340   0.9585   C.3       1 1      0.0000
    12 H9A     -1.7398  -0.7360   2.2481   H         1 1      0.0000
    13 C11      1.0250  -0.7523   1.7344   C.3       1 1      0.0000
    14 C12      2.3245   0.0198   1.5346   C.3       1 1      0.0000
    15 H12A     3.0732  -0.3480   2.2471   H         1 1      0.0000
    16 C13      2.8697  -0.1070   0.1446   C.2       1 1      0.0000
    17 C14      2.3772   0.8670  -0.8833   C.3       1 1      0.0000
    18 H14B     1.3110   1.0556  -0.7073   H         1 1      0.0000
    19 H14A     2.4741   0.4199  -1.8802   H         1 1      0.0000
    20 N        3.7616  -1.0322  -0.1486   N.pl3     1 1      0.0000
    21 HN       4.1086  -1.5917   0.6303   H         1 1      0.0000
    22 C        4.4003  -1.2467  -1.4390   C.3       1 1      0.0000
    23 H1A      5.4658  -1.4298  -1.3162   H         1 1      0.0000
    24 H1C      3.9654  -2.1054  -1.9462   H         1 1      0.0000
    25 H1B      4.2776  -0.3768  -2.0806   H         1 1      0.0000
    26 H10A     0.1102  -0.1860  -0.1113   H         1 1      0.0000
    27 H10B    -0.2007   0.9252   1.2345   H         1 1      0.0000
    28 H9B     -1.4286  -1.8454   0.9022   H         1 1      0.0000
    29 H5      -5.4322   1.5339  -1.6545   H         1 1      0.0000
    30 H3      -4.1271  -1.4420   1.1160   H         1 1      0.0000
    31 H12B     2.1480   1.0801   1.7536   H         1 1      0.0000
    32 C15      3.1171   2.1918  -0.8629   C.3       1 1      0.0000
    33 H15A     3.0493   2.6262   0.1421   H         1 1      0.0000
    34 H15C     2.6320   2.8857  -1.5605   H         1 1      0.0000
    35 OH       0.6958  -0.7632   3.1263   O.3       1 1      0.0000
    36 OH1     -0.0510  -1.3919   3.2843   H         1 1      0.0000
    37 H22      1.1702  -1.7887   1.3924   H         1 1      0.0000
    38 C16      4.5725   2.0443  -1.2418   C.3       1 1      0.0000
    39 H16C     4.6703   1.6348  -2.2450   H         1 1      0.0000
    40 H16A     5.0767   3.0081  -1.2184   H         1 1      0.0000
    41 H16B     5.0849   1.3769  -0.5519   H         1 1      0.0000
@<TRIPOS>BOND
     1     1     2   ar
     2     1     6   ar
     3     1    29    1
     4     2     3   ar
     5     2     7    1
     6     3     4   ar
     7     3    30    1
     8     4     5   ar
     9     4     8    1
    10     5     6   ar
    11     5     9    1
    12     6    10    1
    13     8    11    1
    14     8    12    1
    15     8    28    1
    16    11    13    1
    17    11    26    1
    18    11    27    1
    19    13    14    1
    20    14    15    1
    21    14    16    1
    22    14    31    1
    23    16    17    1
    24    16    20    2
    25    17    18    1
    26    17    19    1
    27    17    32    1
    28    20    21    1
    29    20    22    1
    30    22    23    1
    31    22    24    1
    32    22    25    1
    33    32    33    1
    34    32    34    1
    35    13    35    1
    36    35    36    1
    37    13    37    1
    38    32    38    1
    39    38    39    1
    40    38    40    1
    41    38    41    1
@<TRIPOS>SUBSTRUCTURE
     1 1           1 GROUP             0 ****  ****    0  
@<TRIPOS>MOLECULE
Molecule Name_00001_00474
    41    41     1     0     0
SMALL
NO_CHARGES
****
Generated from the CSD

@<TRIPOS>ATOM
     1 C5      -4.5219  -1.4103   0.0863   C.ar      1 1      0.0000
     2 C4      -3.8379  -1.0994   1.2416   C.ar      1 1      0.0000
     3 C3      -2.9592  -0.0291   1.2630   C.ar      1 1      0.0000
     4 C8      -2.7540   0.7441   0.1307   C.ar      1 1      0.0000
     5 C7      -3.4479   0.4190  -1.0247   C.ar      1 1      0.0000
     6 C6      -4.3267  -0.6511  -1.0472   C.ar      1 1      0.0000
     7 H4      -3.9880  -1.6944   2.1364   H         1 1      0.0000
     8 C9      -1.7937   1.9086   0.1535   C.3       1 1      0.0000
     9 H7      -3.3006   1.0103  -1.9225   H         1 1      0.0000
    10 H6      -4.8627  -0.8923  -1.9592   H         1 1      0.0000
    11 C10     -0.6135   1.7321  -0.7999   C.3       1 1      0.0000
    12 H9A     -2.3366   2.8230  -0.1160   H         1 1      0.0000
    13 C11      0.3778   0.6460  -0.4144   C.3       1 1      0.0000
    14 C12      1.8182   1.1418  -0.4791   C.3       1 1      0.0000
    15 H12A     1.9560   1.9402   0.2605   H         1 1      0.0000
    16 C13      2.8197   0.0577  -0.2197   C.2       1 1      0.0000
    17 C14      4.2702   0.4361  -0.2417   C.3       1 1      0.0000
    18 H14B     4.4362   1.1474  -1.0602   H         1 1      0.0000
    19 H14A     4.8730  -0.4560  -0.4511   H         1 1      0.0000
    20 N        2.4289  -1.1751   0.0349   N.pl3     1 1      0.0000
    21 HN       1.4237  -1.3244   0.1210   H         1 1      0.0000
    22 C        3.2839  -2.3134   0.3388   C.3       1 1      0.0000
    23 H1A      2.8035  -2.9759   1.0558   H         1 1      0.0000
    24 H1C      3.4975  -2.8860  -0.5612   H         1 1      0.0000
    25 H1B      4.2301  -1.9839   0.7628   H         1 1      0.0000
    26 H10A    -1.0072   1.5020  -1.7976   H         1 1      0.0000
    27 H10B    -0.0746   2.6855  -0.8638   H         1 1      0.0000
    28 H9B     -1.4122   2.0355   1.1742   H         1 1      0.0000
    29 H5      -5.2106  -2.2486   0.0692   H         1 1      0.0000
    30 H3      -2.4250   0.2073   2.1773   H         1 1      0.0000
    31 H12B     2.0048   1.5704  -1.4715   H         1 1      0.0000
    32 C15      4.7503   1.0628   1.0543   C.3       1 1      0.0000
    33 H15A     4.5854   0.3572   1.8779   H         1 1      0.0000
    34 H15C     4.1569   1.9621   1.2607   H         1 1      0.0000
    35 OH       0.0928   0.2069   0.9167   O.3       1 1      0.0000
    36 OH1     -0.4636  -0.6100   0.8831   H         1 1      0.0000
    37 H22      0.2623  -0.2040  -1.1046   H         1 1      0.0000
    38 C16      6.2142   1.4348   1.0063   C.3       1 1      0.0000
    39 H16C     6.4040   2.1522   0.2106   H         1 1      0.0000
    40 H16A     6.5299   1.8808   1.9471   H         1 1      0.0000
    41 H16B     6.8296   0.5562   0.8243   H         1 1      0.0000
@<TRIPOS>BOND
     1     1     2   ar
     2     1     6   ar
     3     1    29    1
     4     2     3   ar
     5     2     7    1
     6     3     4   ar
     7     3    30    1
     8     4     5   ar
     9     4     8    1
    10     5     6   ar
    11     5     9    1
    12     6    10    1
    13     8    11    1
    14     8    12    1
    15     8    28    1
    16    11    13    1
    17    11    26    1
    18    11    27    1
    19    13    14    1
    20    14    15    1
    21    14    16    1
    22    14    31    1
    23    16    17    1
    24    16    20    2
    25    17    18    1
    26    17    19    1
    27    17    32    1
    28    20    21    1
    29    20    22    1
    30    22    23    1
    31    22    24    1
    32    22    25    1
    33    32    33    1
    34    32    34    1
    35    13    35    1
    36    35    36    1
    37    13    37    1
    38    32    38    1
    39    38    39    1
    40    38    40    1
    41    38    41    1
@<TRIPOS>SUBSTRUCTURE
     1 1           1 GROUP             0 ****  ****    0  
@<TRIPOS>MOLECULE
Molecule Name_00001_00475
    41    41     1     0     0
SMALL
NO_CHARGES
****
Generated from the CSD

@<TRIPOS>ATOM
     1 C5      -4.5422   0.1084  -1.4097   C.ar      1 1      0.0000
     2 C4      -3.8964  -1.0792  -1.1414   C.ar      1 1      0.0000
     3 C3      -3.0188  -1.1680  -0.0737   C.ar      1 1      0.0000
     4 C8      -2.7764  -0.0717   0.7395   C.ar      1 1      0.0000
     5 C7      -3.4320   1.1169   0.4572   C.ar      1 1      0.0000
     6 C6      -4.3098   1.2068  -0.6103   C.ar      1 1      0.0000
     7 H4      -4.0759  -1.9465  -1.7682   H         1 1      0.0000
     8 C9      -1.8174  -0.1680   1.9012   C.3       1 1      0.0000
     9 H7      -3.2553   1.9874   1.0803   H         1 1      0.0000
    10 H6      -4.8156   2.1440  -0.8177   H         1 1      0.0000
    11 C10     -0.6065   0.7519   1.7577   C.3       1 1      0.0000
    12 H9A     -2.3510   0.0860   2.8254   H         1 1      0.0000
    13 C11      0.3715   0.3735   0.6571   C.3       1 1      0.0000
    14 C12      1.8133   0.3730   1.1531   C.3       1 1      0.0000
    15 H12A     1.9269  -0.3990   1.9241   H         1 1      0.0000
    16 C13      2.8057   0.1202   0.0591   C.2       1 1      0.0000
    17 C14      4.2562   0.0810   0.4362   C.3       1 1      0.0000
    18 H14B     4.7973  -0.5173  -0.3073   H         1 1      0.0000
    19 H14A     4.3637  -0.4201   1.4060   H         1 1      0.0000
    20 N        2.4066  -0.0768  -1.1816   N.pl3     1 1      0.0000
    21 HN       1.3991  -0.1245  -1.3326   H         1 1      0.0000
    22 C        3.2511  -0.3674  -2.3312   C.3       1 1      0.0000
    23 H1A      2.6685  -0.8129  -3.1348   H         1 1      0.0000
    24 H1C      3.7116   0.5423  -2.7107   H         1 1      0.0000
    25 H1B      4.0444  -1.0617  -2.0625   H         1 1      0.0000
    26 H10A    -0.9672   1.7696   1.5642   H         1 1      0.0000
    27 H10B    -0.0656   0.7637   2.7121   H         1 1      0.0000
    28 H9B     -1.4695  -1.2046   1.9908   H         1 1      0.0000
    29 H5      -5.2300   0.1784  -2.2459   H         1 1      0.0000
    30 H3      -2.5149  -2.1073   0.1288   H         1 1      0.0000
    31 H12B     2.0325   1.3427   1.6169   H         1 1      0.0000
    32 C15      4.8963   1.4545   0.5170   C.3       1 1      0.0000
    33 H15A     4.3585   2.0590   1.2577   H         1 1      0.0000
    34 H15C     4.8006   1.9538  -0.4551   H         1 1      0.0000
    35 OH       0.0430  -0.9308   0.1708   O.3       1 1      0.0000
    36 OH1     -0.5123  -0.8497  -0.6435   H         1 1      0.0000
    37 H22      0.2787   1.0973  -0.1673   H         1 1      0.0000
    38 C16      6.3570   1.3874   0.8985   C.3       1 1      0.0000
    39 H16C     6.9203   0.8106   0.1679   H         1 1      0.0000
    40 H16A     6.7887   2.3848   0.9487   H         1 1      0.0000
    41 H16B     6.4804   0.9153   1.8709   H         1 1      0.0000
@<TRIPOS>BOND
     1     1     2   ar
     2     1     6   ar
     3     1    29    1
     4     2     3   ar
     5     2     7    1
     6     3     4   ar
     7     3    30    1
     8     4     5   ar
     9     4     8    1
    10     5     6   ar
    11     5     9    1
    12     6    10    1
    13     8    11    1
    14     8    12    1
    15     8    28    1
    16    11    13    1
    17    11    26    1
    18    11    27    1
    19    13    14    1
    20    14    15    1
    21    14    16    1
    22    14    31    1
    23    16    17    1
    24    16    20    2
    25    17    18    1
    26    17    19    1
    27    17    32    1
    28    20    21    1
    29    20    22    1
    30    22    23    1
    31    22    24    1
    32    22    25    1
    33    32    33    1
    34    32    34    1
    35    13    35    1
    36    35    36    1
    37    13    37    1
    38    32    38    1
    39    38    39    1
    40    38    40    1
    41    38    41    1
@<TRIPOS>SUBSTRUCTURE
     1 1           1 GROUP             0 ****  ****    0  
@<TRIPOS>MOLECULE
Molecule Name_00001_00476
    41    41     1     0     0
SMALL
NO_CHARGES
****
Generated from the CSD

@<TRIPOS>ATOM
     1 C5      -4.3231  -1.1577   0.8548   C.ar      1 1      0.0000
     2 C4      -4.3129   0.2196   0.9045   C.ar      1 1      0.0000
     3 C3      -3.2336   0.9258   0.4002   C.ar      1 1      0.0000
     4 C8      -2.1517   0.2647  -0.1607   C.ar      1 1      0.0000
     5 C7      -2.1749  -1.1209  -0.2029   C.ar      1 1      0.0000
     6 C6      -3.2538  -1.8280   0.3011   C.ar      1 1      0.0000
     7 H4      -5.1523   0.7517   1.3397   H         1 1      0.0000
     8 C9      -0.9740   1.0348  -0.7073   C.3       1 1      0.0000
     9 H7      -1.3376  -1.6579  -0.6362   H         1 1      0.0000
    10 H6      -3.2571  -2.9123   0.2601   H         1 1      0.0000
    11 C10      0.0806   1.3501   0.3517   C.3       1 1      0.0000
    12 H9A     -0.5090   0.4508  -1.5112   H         1 1      0.0000
    13 C11      1.2902   2.1254  -0.1450   C.3       1 1      0.0000
    14 C12      2.0783   1.3420  -1.1890   C.3       1 1      0.0000
    15 H12A     2.8669   1.9846  -1.5995   H         1 1      0.0000
    16 C13      2.7019   0.0972  -0.6350   C.2       1 1      0.0000
    17 C14      3.9115   0.2580   0.2361   C.3       1 1      0.0000
    18 H14B     4.4840   1.1262  -0.1132   H         1 1      0.0000
    19 H14A     4.5527  -0.6256   0.1303   H         1 1      0.0000
    20 N        2.1879  -1.0884  -0.8951   N.pl3     1 1      0.0000
    21 HN       1.3131  -1.0991  -1.4192   H         1 1      0.0000
    22 C        2.6643  -2.3710  -0.3981   C.3       1 1      0.0000
    23 H1A      1.8641  -2.9117   0.1030   H         1 1      0.0000
    24 H1C      3.0305  -2.9889  -1.2153   H         1 1      0.0000
    25 H1B      3.4767  -2.2330   0.3121   H         1 1      0.0000
    26 H10A    -0.3963   1.9297   1.1518   H         1 1      0.0000
    27 H10B     0.4297   0.4047   0.7849   H         1 1      0.0000
    28 H9B     -1.3345   1.9747  -1.1431   H         1 1      0.0000
    29 H5      -5.1686  -1.7113   1.2495   H         1 1      0.0000
    30 H3      -3.2348   2.0099   0.4445   H         1 1      0.0000
    31 H12B     1.4075   1.0691  -2.0131   H         1 1      0.0000
    32 C15      3.5773   0.4522   1.7035   C.3       1 1      0.0000
    33 H15A     2.9292   1.3307   1.8116   H         1 1      0.0000
    34 H15C     4.5019   0.6482   2.2603   H         1 1      0.0000
    35 OH       0.8487   3.3587  -0.7195   O.3       1 1      0.0000
    36 OH1      0.3571   3.8825  -0.0399   H         1 1      0.0000
    37 H22      1.9497   2.3438   0.7092   H         1 1      0.0000
    38 C16      2.8845  -0.7509   2.3002   C.3       1 1      0.0000
    39 H16C     3.5539  -1.6082   2.3256   H         1 1      0.0000
    40 H16A     2.5602  -0.5439   3.3179   H         1 1      0.0000
    41 H16B     2.0088  -1.0219   1.7141   H         1 1      0.0000
@<TRIPOS>BOND
     1     1     2   ar
     2     1     6   ar
     3     1    29    1
     4     2     3   ar
     5     2     7    1
     6     3     4   ar
     7     3    30    1
     8     4     5   ar
     9     4     8    1
    10     5     6   ar
    11     5     9    1
    12     6    10    1
    13     8    11    1
    14     8    12    1
    15     8    28    1
    16    11    13    1
    17    11    26    1
    18    11    27    1
    19    13    14    1
    20    14    15    1
    21    14    16    1
    22    14    31    1
    23    16    17    1
    24    16    20    2
    25    17    18    1
    26    17    19    1
    27    17    32    1
    28    20    21    1
    29    20    22    1
    30    22    23    1
    31    22    24    1
    32    22    25    1
    33    32    33    1
    34    32    34    1
    35    13    35    1
    36    35    36    1
    37    13    37    1
    38    32    38    1
    39    38    39    1
    40    38    40    1
    41    38    41    1
@<TRIPOS>SUBSTRUCTURE
     1 1           1 GROUP             0 ****  ****    0  
@<TRIPOS>MOLECULE
Molecule Name_00001_00477
    41    41     1     0     0
SMALL
NO_CHARGES
****
Generated from the CSD

@<TRIPOS>ATOM
     1 C5      -4.7025  -1.2073  -0.4350   C.ar      1 1      0.0000
     2 C4      -4.7122  -0.1825   0.4865   C.ar      1 1      0.0000
     3 C3      -3.5848   0.6015   0.6667   C.ar      1 1      0.0000
     4 C8      -2.4344   0.3716  -0.0722   C.ar      1 1      0.0000
     5 C7      -2.4386  -0.6633  -0.9946   C.ar      1 1      0.0000
     6 C6      -3.5654  -1.4479  -1.1756   C.ar      1 1      0.0000
     7 H4      -5.6049   0.0105   1.0721   H         1 1      0.0000
     8 C9      -1.2047   1.2244   0.1269   C.3       1 1      0.0000
     9 H7      -1.5481  -0.8611  -1.5821   H         1 1      0.0000
    10 H6      -3.5530  -2.2537  -1.9020   H         1 1      0.0000
    11 C10     -0.2953   0.7148   1.2433   C.3       1 1      0.0000
    12 H9A     -0.6364   1.2539  -0.8110   H         1 1      0.0000
    13 C11      0.9597   1.5373   1.4869   C.3       1 1      0.0000
    14 C12      1.8807   1.5429   0.2719   C.3       1 1      0.0000
    15 H12A     2.6674   2.2926   0.4218   H         1 1      0.0000
    16 C13      2.5180   0.2106   0.0179   C.2       1 1      0.0000
    17 C14      3.5920  -0.2343   0.9647   C.3       1 1      0.0000
    18 H14B     3.6497  -1.3296   0.9421   H         1 1      0.0000
    19 H14A     3.3193   0.0619   1.9850   H         1 1      0.0000
    20 N        2.1293  -0.5418  -0.9921   N.pl3     1 1      0.0000
    21 HN       1.3314  -0.2035  -1.5298   H         1 1      0.0000
    22 C        2.6309  -1.8646  -1.3350   C.3       1 1      0.0000
    23 H1A      1.9418  -2.3772  -2.0029   H         1 1      0.0000
    24 H1C      3.5957  -1.7937  -1.8329   H         1 1      0.0000
    25 H1B      2.7548  -2.4744  -0.4426   H         1 1      0.0000
    26 H10A    -0.8750   0.6852   2.1741   H         1 1      0.0000
    27 H10B     0.0056  -0.3124   1.0029   H         1 1      0.0000
    28 H9B     -1.5166   2.2498   0.3606   H         1 1      0.0000
    29 H5      -5.5856  -1.8216  -0.5766   H         1 1      0.0000
    30 H3      -3.6022   1.4055   1.3950   H         1 1      0.0000
    31 H12B     1.3035   1.8372  -0.6133   H         1 1      0.0000
    32 C15      4.9603   0.3333   0.6353   C.3       1 1      0.0000
    33 H15A     5.6652   0.0563   1.4288   H         1 1      0.0000
    34 H15C     4.8990   1.4283   0.6097   H         1 1      0.0000
    35 OH       0.5822   2.8822   1.7947   O.3       1 1      0.0000
    36 OH1      0.0036   2.8876   2.5968   H         1 1      0.0000
    37 H22      1.5039   1.1126   2.3446   H         1 1      0.0000
    38 C16      5.4863  -0.1651  -0.6909   C.3       1 1      0.0000
    39 H16C     4.8165   0.1148  -1.5013   H         1 1      0.0000
    40 H16A     6.4668   0.2574  -0.9003   H         1 1      0.0000
    41 H16B     5.5783  -1.2492  -0.6864   H         1 1      0.0000
@<TRIPOS>BOND
     1     1     2   ar
     2     1     6   ar
     3     1    29    1
     4     2     3   ar
     5     2     7    1
     6     3     4   ar
     7     3    30    1
     8     4     5   ar
     9     4     8    1
    10     5     6   ar
    11     5     9    1
    12     6    10    1
    13     8    11    1
    14     8    12    1
    15     8    28    1
    16    11    13    1
    17    11    26    1
    18    11    27    1
    19    13    14    1
    20    14    15    1
    21    14    16    1
    22    14    31    1
    23    16    17    1
    24    16    20    2
    25    17    18    1
    26    17    19    1
    27    17    32    1
    28    20    21    1
    29    20    22    1
    30    22    23    1
    31    22    24    1
    32    22    25    1
    33    32    33    1
    34    32    34    1
    35    13    35    1
    36    35    36    1
    37    13    37    1
    38    32    38    1
    39    38    39    1
    40    38    40    1
    41    38    41    1
@<TRIPOS>SUBSTRUCTURE
     1 1           1 GROUP             0 ****  ****    0  
@<TRIPOS>MOLECULE
Molecule Name_00001_00478
    41    41     1     0     0
SMALL
NO_CHARGES
****
Generated from the CSD

@<TRIPOS>ATOM
     1 C5      -4.7580  -1.0226  -0.5488   C.ar      1 1      0.0000
     2 C4      -4.6888  -0.1781   0.5381   C.ar      1 1      0.0000
     3 C3      -3.5240   0.5236   0.8007   C.ar      1 1      0.0000
     4 C8      -2.4146   0.3908  -0.0200   C.ar      1 1      0.0000
     5 C7      -2.4980  -0.4630  -1.1091   C.ar      1 1      0.0000
     6 C6      -3.6623  -1.1652  -1.3725   C.ar      1 1      0.0000
     7 H4      -5.5487  -0.0629   1.1897   H         1 1      0.0000
     8 C9      -1.1441   1.1534   0.2684   C.3       1 1      0.0000
     9 H7      -1.6406  -0.5826  -1.7631   H         1 1      0.0000
    10 H6      -3.7119  -1.8291  -2.2292   H         1 1      0.0000
    11 C10     -0.2122   0.4237   1.2338   C.3       1 1      0.0000
    12 H9A     -0.6131   1.3303  -0.6751   H         1 1      0.0000
    13 C11      1.0841   1.1480   1.5596   C.3       1 1      0.0000
    14 C12      1.9552   1.3388   0.3228   C.3       1 1      0.0000
    15 H12A     2.7771   2.0236   0.5655   H         1 1      0.0000
    16 C13      2.5268   0.0526  -0.1913   C.2       1 1      0.0000
    17 C14      3.6125  -0.5936   0.6159   C.3       1 1      0.0000
    18 H14B     3.5935  -1.6746   0.4301   H         1 1      0.0000
    19 H14A     3.4109  -0.4374   1.6827   H         1 1      0.0000
    20 N        2.0728  -0.4910  -1.3029   N.pl3     1 1      0.0000
    21 HN       1.2721  -0.0333  -1.7383   H         1 1      0.0000
    22 C        2.5064  -1.7472  -1.8971   C.3       1 1      0.0000
    23 H1A      1.7483  -2.1354  -2.5742   H         1 1      0.0000
    24 H1C      3.4261  -1.6091  -2.4617   H         1 1      0.0000
    25 H1B      2.6899  -2.4953  -1.1289   H         1 1      0.0000
    26 H10A    -0.7547   0.2484   2.1710   H         1 1      0.0000
    27 H10B     0.0367  -0.5538   0.8025   H         1 1      0.0000
    28 H9B     -1.4041   2.1308   0.6933   H         1 1      0.0000
    29 H5      -5.6704  -1.5724  -0.7550   H         1 1      0.0000
    30 H3      -3.4793   1.1855   1.6592   H         1 1      0.0000
    31 H12B     1.3554   1.8047  -0.4688   H         1 1      0.0000
    32 C15      4.9989  -0.0673   0.2937   C.3       1 1      0.0000
    33 H15A     5.1808  -0.1686  -0.7833   H         1 1      0.0000
    34 H15C     5.7458  -0.6764   0.8177   H         1 1      0.0000
    35 OH       0.7745   2.4284   2.1167   O.3       1 1      0.0000
    36 OH1      0.2294   2.3104   2.9334   H         1 1      0.0000
    37 H22      1.6446   0.5598   2.3027   H         1 1      0.0000
    38 C16      5.1720   1.3803   0.6914   C.3       1 1      0.0000
    39 H16C     4.7387   1.5653   1.6721   H         1 1      0.0000
    40 H16A     6.2263   1.6460   0.7310   H         1 1      0.0000
    41 H16B     4.6834   2.0380  -0.0245   H         1 1      0.0000
@<TRIPOS>BOND
     1     1     2   ar
     2     1     6   ar
     3     1    29    1
     4     2     3   ar
     5     2     7    1
     6     3     4   ar
     7     3    30    1
     8     4     5   ar
     9     4     8    1
    10     5     6   ar
    11     5     9    1
    12     6    10    1
    13     8    11    1
    14     8    12    1
    15     8    28    1
    16    11    13    1
    17    11    26    1
    18    11    27    1
    19    13    14    1
    20    14    15    1
    21    14    16    1
    22    14    31    1
    23    16    17    1
    24    16    20    2
    25    17    18    1
    26    17    19    1
    27    17    32    1
    28    20    21    1
    29    20    22    1
    30    22    23    1
    31    22    24    1
    32    22    25    1
    33    32    33    1
    34    32    34    1
    35    13    35    1
    36    35    36    1
    37    13    37    1
    38    32    38    1
    39    38    39    1
    40    38    40    1
    41    38    41    1
@<TRIPOS>SUBSTRUCTURE
     1 1           1 GROUP             0 ****  ****    0  
@<TRIPOS>MOLECULE
Molecule Name_00001_00479
    41    41     1     0     0
SMALL
NO_CHARGES
****
Generated from the CSD

@<TRIPOS>ATOM
     1 C5      -4.4157   0.9541  -0.9138   C.ar      1 1      0.0000
     2 C4      -4.4272   0.1621   0.2140   C.ar      1 1      0.0000
     3 C3      -3.2488  -0.0977   0.8936   C.ar      1 1      0.0000
     4 C8      -2.0446   0.4313   0.4550   C.ar      1 1      0.0000
     5 C7      -2.0478   1.2252  -0.6815   C.ar      1 1      0.0000
     6 C6      -3.2257   1.4856  -1.3618   C.ar      1 1      0.0000
     7 H4      -5.3616  -0.2589   0.5703   H         1 1      0.0000
     8 C9      -0.7598   0.1452   1.1942   C.3       1 1      0.0000
     9 H7      -1.1159   1.6477  -1.0425   H         1 1      0.0000
    10 H6      -3.2116   2.1094  -2.2494   H         1 1      0.0000
    11 C10     -0.0789  -1.1436   0.7375   C.3       1 1      0.0000
    12 H9A     -0.0697   0.9850   1.0467   H         1 1      0.0000
    13 C11      1.2211  -1.4805   1.4497   C.3       1 1      0.0000
    14 C12      2.2582  -0.3738   1.2938   C.3       1 1      0.0000
    15 H12A     3.1007  -0.5746   1.9671   H         1 1      0.0000
    16 C13      2.7724  -0.2504  -0.1083   C.2       1 1      0.0000
    17 C14      1.9960   0.6133  -1.0564   C.3       1 1      0.0000
    18 H14B     0.9293   0.5323  -0.8135   H         1 1      0.0000
    19 H14A     2.1319   0.2400  -2.0788   H         1 1      0.0000
    20 N        3.8764  -0.8678  -0.4789   N.pl3     1 1      0.0000
    21 HN       4.3900  -1.3586   0.2529   H         1 1      0.0000
    22 C        4.5080  -0.8090  -1.7891   C.3       1 1      0.0000
    23 H1A      5.5913  -0.8496  -1.6972   H         1 1      0.0000
    24 H1C      4.1890  -1.6447  -2.4084   H         1 1      0.0000
    25 H1B      4.2457   0.1129  -2.3038   H         1 1      0.0000
    26 H10A    -0.7792  -1.9750   0.8853   H         1 1      0.0000
    27 H10B     0.1259  -1.0648  -0.3374   H         1 1      0.0000
    28 H9B     -0.9748   0.0743   2.2676   H         1 1      0.0000
    29 H5      -5.3388   1.1581  -1.4463   H         1 1      0.0000
    30 H3      -3.2682  -0.7229   1.7801   H         1 1      0.0000
    31 H12B     1.8105   0.5812   1.5953   H         1 1      0.0000
    32 C15      2.3979   2.0758  -1.0078   C.3       1 1      0.0000
    33 H15A     1.8811   2.6178  -1.8094   H         1 1      0.0000
    34 H15C     3.4766   2.1588  -1.1896   H         1 1      0.0000
    35 OH       0.9522  -1.6780   2.8406   O.3       1 1      0.0000
    36 OH1      0.2977  -2.4113   2.9496   H         1 1      0.0000
    37 H22      1.6284  -2.4123   1.0276   H         1 1      0.0000
    38 C16      2.0675   2.7199   0.3187   C.3       1 1      0.0000
    39 H16C     2.6749   2.2954   1.1154   H         1 1      0.0000
    40 H16A     2.2541   3.7912   0.2844   H         1 1      0.0000
    41 H16B     1.0207   2.5661   0.5720   H         1 1      0.0000
@<TRIPOS>BOND
     1     1     2   ar
     2     1     6   ar
     3     1    29    1
     4     2     3   ar
     5     2     7    1
     6     3     4   ar
     7     3    30    1
     8     4     5   ar
     9     4     8    1
    10     5     6   ar
    11     5     9    1
    12     6    10    1
    13     8    11    1
    14     8    12    1
    15     8    28    1
    16    11    13    1
    17    11    26    1
    18    11    27    1
    19    13    14    1
    20    14    15    1
    21    14    16    1
    22    14    31    1
    23    16    17    1
    24    16    20    2
    25    17    18    1
    26    17    19    1
    27    17    32    1
    28    20    21    1
    29    20    22    1
    30    22    23    1
    31    22    24    1
    32    22    25    1
    33    32    33    1
    34    32    34    1
    35    13    35    1
    36    35    36    1
    37    13    37    1
    38    32    38    1
    39    38    39    1
    40    38    40    1
    41    38    41    1
@<TRIPOS>SUBSTRUCTURE
     1 1           1 GROUP             0 ****  ****    0  
@<TRIPOS>MOLECULE
Molecule Name_00001_00480
    41    41     1     0     0
SMALL
NO_CHARGES
****
Generated from the CSD

@<TRIPOS>ATOM
     1 C5      -4.4626   1.0013  -1.0208   C.ar      1 1      0.0000
     2 C4      -4.5269   0.1305   0.0455   C.ar      1 1      0.0000
     3 C3      -3.3844  -0.1696   0.7684   C.ar      1 1      0.0000
     4 C8      -2.1638   0.3972   0.4352   C.ar      1 1      0.0000
     5 C7      -2.1136   1.2704  -0.6405   C.ar      1 1      0.0000
     6 C6      -3.2556   1.5711  -1.3640   C.ar      1 1      0.0000
     7 H4      -5.4748  -0.3209   0.3193   H         1 1      0.0000
     8 C9      -0.9181   0.0673   1.2214   C.3       1 1      0.0000
     9 H7      -1.1680   1.7237  -0.9190   H         1 1      0.0000
    10 H6      -3.1999   2.2569  -2.2029   H         1 1      0.0000
    11 C10     -0.2001  -1.1811   0.7122   C.3       1 1      0.0000
    12 H9A     -0.2297   0.9200   1.1721   H         1 1      0.0000
    13 C11      1.0628  -1.5598   1.4690   C.3       1 1      0.0000
    14 C12      2.0903  -0.4333   1.4603   C.3       1 1      0.0000
    15 H12A     2.8953  -0.6769   2.1646   H         1 1      0.0000
    16 C13      2.6829  -0.1958   0.1046   C.2       1 1      0.0000
    17 C14      1.9531   0.7357  -0.8160   C.3       1 1      0.0000
    18 H14B     0.8742   0.5831  -0.6885   H         1 1      0.0000
    19 H14A     2.2022   0.4857  -1.8545   H         1 1      0.0000
    20 N        3.8131  -0.7749  -0.2486   N.pl3     1 1      0.0000
    21 HN       4.2889  -1.3190   0.4708   H         1 1      0.0000
    22 C        4.5183  -0.6082  -1.5111   C.3       1 1      0.0000
    23 H1A      5.5880  -0.5003  -1.3440   H         1 1      0.0000
    24 H1C      4.3616  -1.4699  -2.1567   H         1 1      0.0000
    25 H1B      4.1664   0.2768  -2.0368   H         1 1      0.0000
    26 H10A    -0.8987  -2.0254   0.7618   H         1 1      0.0000
    27 H10B     0.0619  -1.0242  -0.3414   H         1 1      0.0000
    28 H9B     -1.1901  -0.0816   2.2736   H         1 1      0.0000
    29 H5      -5.3575   1.2368  -1.5872   H         1 1      0.0000
    30 H3      -3.4453  -0.8567   1.6059   H         1 1      0.0000
    31 H12B     1.6113   0.4905   1.8075   H         1 1      0.0000
    32 C15      2.2714   2.1990  -0.5709   C.3       1 1      0.0000
    33 H15A     2.0536   2.4441   0.4760   H         1 1      0.0000
    34 H15C     1.6222   2.8190  -1.2014   H         1 1      0.0000
    35 OH       0.7190  -1.8699   2.8223   O.3       1 1      0.0000
    36 OH1      0.0705  -2.6164   2.8357   H         1 1      0.0000
    37 H22      1.5070  -2.4508   0.9989   H         1 1      0.0000
    38 C16      3.7153   2.5316  -0.8676   C.3       1 1      0.0000
    39 H16C     3.9544   2.3185  -1.9074   H         1 1      0.0000
    40 H16A     3.9142   3.5853  -0.6831   H         1 1      0.0000
    41 H16B     4.3830   1.9457  -0.2394   H         1 1      0.0000
@<TRIPOS>BOND
     1     1     2   ar
     2     1     6   ar
     3     1    29    1
     4     2     3   ar
     5     2     7    1
     6     3     4   ar
     7     3    30    1
     8     4     5   ar
     9     4     8    1
    10     5     6   ar
    11     5     9    1
    12     6    10    1
    13     8    11    1
    14     8    12    1
    15     8    28    1
    16    11    13    1
    17    11    26    1
    18    11    27    1
    19    13    14    1
    20    14    15    1
    21    14    16    1
    22    14    31    1
    23    16    17    1
    24    16    20    2
    25    17    18    1
    26    17    19    1
    27    17    32    1
    28    20    21    1
    29    20    22    1
    30    22    23    1
    31    22    24    1
    32    22    25    1
    33    32    33    1
    34    32    34    1
    35    13    35    1
    36    35    36    1
    37    13    37    1
    38    32    38    1
    39    38    39    1
    40    38    40    1
    41    38    41    1
@<TRIPOS>SUBSTRUCTURE
     1 1           1 GROUP             0 ****  ****    0  
@<TRIPOS>MOLECULE
Molecule Name_00001_00481
    41    41     1     0     0
SMALL
NO_CHARGES
****
Generated from the CSD

@<TRIPOS>ATOM
     1 C5      -3.9577   0.0620   1.6744   C.ar      1 1      0.0000
     2 C4      -2.7266   0.5551   2.0496   C.ar      1 1      0.0000
     3 C3      -1.7438   0.7698   1.0978   C.ar      1 1      0.0000
     4 C8      -1.9792   0.4953  -0.2406   C.ar      1 1      0.0000
     5 C7      -3.2216  -0.0015  -0.6035   C.ar      1 1      0.0000
     6 C6      -4.2051  -0.2165   0.3475   C.ar      1 1      0.0000
     7 H4      -2.5270   0.7756   3.0931   H         1 1      0.0000
     8 C9      -0.9065   0.7264  -1.2773   C.3       1 1      0.0000
     9 H7      -3.4260  -0.2245  -1.6455   H         1 1      0.0000
    10 H6      -5.1726  -0.6052   0.0474   H         1 1      0.0000
    11 C10      0.0246  -0.4714  -1.4548   C.3       1 1      0.0000
    12 H9A     -1.3836   0.9531  -2.2388   H         1 1      0.0000
    13 C11      1.2965  -0.1962  -2.2406   C.3       1 1      0.0000
    14 C12      2.2712   0.6763  -1.4573   C.3       1 1      0.0000
    15 H12A     1.8211   1.6642  -1.2997   H         1 1      0.0000
    16 C13      2.6395   0.0899  -0.1283   C.2       1 1      0.0000
    17 C14      2.9571   1.0432   0.9844   C.3       1 1      0.0000
    18 H14B     3.5402   1.8783   0.5769   H         1 1      0.0000
    19 H14A     3.5826   0.5345   1.7281   H         1 1      0.0000
    20 N        2.6628  -1.2159   0.0499   N.pl3     1 1      0.0000
    21 HN       2.3444  -1.7869  -0.7329   H         1 1      0.0000
    22 C        2.9650  -1.9195   1.2878   C.3       1 1      0.0000
    23 H1A      2.3720  -2.8280   1.3697   H         1 1      0.0000
    24 H1C      4.0164  -2.1967   1.3267   H         1 1      0.0000
    25 H1B      2.7479  -1.2940   2.1511   H         1 1      0.0000
    26 H10A     0.3058  -0.8401  -0.4606   H         1 1      0.0000
    27 H10B    -0.5306  -1.2690  -1.9636   H         1 1      0.0000
    28 H9B     -0.3118   1.6007  -0.9855   H         1 1      0.0000
    29 H5      -4.7280  -0.1061   2.4197   H         1 1      0.0000
    30 H3      -0.7777   1.1577   1.4034   H         1 1      0.0000
    31 H12B     3.1831   0.8159  -2.0510   H         1 1      0.0000
    32 C15      1.7246   1.5989   1.6735   C.3       1 1      0.0000
    33 H15A     1.1356   0.7684   2.0819   H         1 1      0.0000
    34 H15C     1.1024   2.1184   0.9343   H         1 1      0.0000
    35 OH       1.9288  -1.4405  -2.5533   O.3       1 1      0.0000
    36 OH1      1.3098  -2.0018  -3.0823   H         1 1      0.0000
    37 H22      1.0329   0.3175  -3.1780   H         1 1      0.0000
    38 C16      2.0717   2.5561   2.7901   C.3       1 1      0.0000
    39 H16C     2.6389   3.4031   2.4097   H         1 1      0.0000
    40 H16A     1.1704   2.9378   3.2652   H         1 1      0.0000
    41 H16B     2.6717   2.0605   3.5505   H         1 1      0.0000
@<TRIPOS>BOND
     1     1     2   ar
     2     1     6   ar
     3     1    29    1
     4     2     3   ar
     5     2     7    1
     6     3     4   ar
     7     3    30    1
     8     4     5   ar
     9     4     8    1
    10     5     6   ar
    11     5     9    1
    12     6    10    1
    13     8    11    1
    14     8    12    1
    15     8    28    1
    16    11    13    1
    17    11    26    1
    18    11    27    1
    19    13    14    1
    20    14    15    1
    21    14    16    1
    22    14    31    1
    23    16    17    1
    24    16    20    2
    25    17    18    1
    26    17    19    1
    27    17    32    1
    28    20    21    1
    29    20    22    1
    30    22    23    1
    31    22    24    1
    32    22    25    1
    33    32    33    1
    34    32    34    1
    35    13    35    1
    36    35    36    1
    37    13    37    1
    38    32    38    1
    39    38    39    1
    40    38    40    1
    41    38    41    1
@<TRIPOS>SUBSTRUCTURE
     1 1           1 GROUP             0 ****  ****    0  
@<TRIPOS>MOLECULE
Molecule Name_00001_00482
    41    41     1     0     0
SMALL
NO_CHARGES
****
Generated from the CSD

@<TRIPOS>ATOM
     1 C5      -4.2951  -0.2293   1.4745   C.ar      1 1      0.0000
     2 C4      -3.0990   0.2589   1.9544   C.ar      1 1      0.0000
     3 C3      -2.0818   0.5936   1.0762   C.ar      1 1      0.0000
     4 C8      -2.2475   0.4453  -0.2923   C.ar      1 1      0.0000
     5 C7      -3.4555  -0.0480  -0.7608   C.ar      1 1      0.0000
     6 C6      -4.4733  -0.3830   0.1165   C.ar      1 1      0.0000
     7 H4      -2.9539   0.3813   3.0227   H         1 1      0.0000
     8 C9      -1.1373   0.8072  -1.2490   C.3       1 1      0.0000
     9 H7      -3.6053  -0.1732  -1.8281   H         1 1      0.0000
    10 H6      -5.4131  -0.7673  -0.2660   H         1 1      0.0000
    11 C10     -0.1565  -0.3385  -1.4910   C.3       1 1      0.0000
    12 H9A     -1.5775   1.1086  -2.2075   H         1 1      0.0000
    13 C11      1.1572   0.0568  -2.1461   C.3       1 1      0.0000
    14 C12      2.0355   0.8781  -1.2086   C.3       1 1      0.0000
    15 H12A     1.5402   1.8342  -0.9991   H         1 1      0.0000
    16 C13      2.3169   0.1798   0.0870   C.2       1 1      0.0000
    17 C14      2.4723   1.0303   1.3119   C.3       1 1      0.0000
    18 H14B     2.2371   0.4229   2.1945   H         1 1      0.0000
    19 H14A     1.7484   1.8535   1.2741   H         1 1      0.0000
    20 N        2.4048  -1.1343   0.1401   N.pl3     1 1      0.0000
    21 HN       2.1950  -1.6388  -0.7211   H         1 1      0.0000
    22 C        2.6361  -1.9434   1.3279   C.3       1 1      0.0000
    23 H1A      2.3905  -2.9861   1.1381   H         1 1      0.0000
    24 H1C      3.6793  -1.8911   1.6325   H         1 1      0.0000
    25 H1B      2.0237  -1.5964   2.1574   H         1 1      0.0000
    26 H10A     0.0670  -0.8110  -0.5266   H         1 1      0.0000
    27 H10B    -0.6478  -1.0867  -2.1251   H         1 1      0.0000
    28 H9B     -0.5885   1.6683  -0.8482   H         1 1      0.0000
    29 H5      -5.0924  -0.4913   2.1622   H         1 1      0.0000
    30 H3      -1.1436   0.9766   1.4639   H         1 1      0.0000
    31 H12B     2.9863   1.0976  -1.7098   H         1 1      0.0000
    32 C15      3.8667   1.6067   1.4736   C.3       1 1      0.0000
    33 H15A     4.1093   2.2141   0.5930   H         1 1      0.0000
    34 H15C     4.5921   0.7852   1.5234   H         1 1      0.0000
    35 OH       1.8609  -1.1278  -2.5296   O.3       1 1      0.0000
    36 OH1      1.3058  -1.6535  -3.1569   H         1 1      0.0000
    37 H22      0.9420   0.6532  -3.0462   H         1 1      0.0000
    38 C16      3.9969   2.4592   2.7146   C.3       1 1      0.0000
    39 H16C     3.7827   1.8757   3.6076   H         1 1      0.0000
    40 H16A     5.0051   2.8583   2.8043   H         1 1      0.0000
    41 H16B     3.3026   3.2963   2.6820   H         1 1      0.0000
@<TRIPOS>BOND
     1     1     2   ar
     2     1     6   ar
     3     1    29    1
     4     2     3   ar
     5     2     7    1
     6     3     4   ar
     7     3    30    1
     8     4     5   ar
     9     4     8    1
    10     5     6   ar
    11     5     9    1
    12     6    10    1
    13     8    11    1
    14     8    12    1
    15     8    28    1
    16    11    13    1
    17    11    26    1
    18    11    27    1
    19    13    14    1
    20    14    15    1
    21    14    16    1
    22    14    31    1
    23    16    17    1
    24    16    20    2
    25    17    18    1
    26    17    19    1
    27    17    32    1
    28    20    21    1
    29    20    22    1
    30    22    23    1
    31    22    24    1
    32    22    25    1
    33    32    33    1
    34    32    34    1
    35    13    35    1
    36    35    36    1
    37    13    37    1
    38    32    38    1
    39    38    39    1
    40    38    40    1
    41    38    41    1
@<TRIPOS>SUBSTRUCTURE
     1 1           1 GROUP             0 ****  ****    0  
@<TRIPOS>MOLECULE
Molecule Name_00001_00483
    41    41     1     0     0
SMALL
NO_CHARGES
****
Generated from the CSD

@<TRIPOS>ATOM
     1 C5      -5.4381   0.9734  -0.1616   C.ar      1 1      0.0000
     2 C4      -4.8578   0.4058  -1.2753   C.ar      1 1      0.0000
     3 C3      -3.6203  -0.2084  -1.1783   C.ar      1 1      0.0000
     4 C8      -2.9479  -0.2636   0.0329   C.ar      1 1      0.0000
     5 C7      -3.5429   0.3126   1.1446   C.ar      1 1      0.0000
     6 C6      -4.7804   0.9270   1.0487   C.ar      1 1      0.0000
     7 H4      -5.3717   0.4401  -2.2303   H         1 1      0.0000
     8 C9      -1.5975  -0.9302   0.1375   C.3       1 1      0.0000
     9 H7      -3.0328   0.2818   2.1018   H         1 1      0.0000
    10 H6      -5.2331   1.3728   1.9282   H         1 1      0.0000
    11 C10     -0.4826   0.0326   0.5411   C.3       1 1      0.0000
    12 H9A     -1.6560  -1.7386   0.8768   H         1 1      0.0000
    13 C11      0.9315  -0.4800   0.3206   C.3       1 1      0.0000
    14 C12      1.9796   0.5484   0.7314   C.3       1 1      0.0000
    15 H12A     1.8991   0.7311   1.8100   H         1 1      0.0000
    16 C13      3.3780   0.1142   0.4128   C.2       1 1      0.0000
    17 C14      4.4934   1.0426   0.7892   C.3       1 1      0.0000
    18 H14B     5.4344   0.6413   0.3931   H         1 1      0.0000
    19 H14A     4.5819   1.0764   1.8819   H         1 1      0.0000
    20 N        3.6090  -1.0500  -0.1607   N.pl3     1 1      0.0000
    21 HN       2.8010  -1.6569  -0.2980   H         1 1      0.0000
    22 C        4.9095  -1.6131  -0.4930   C.3       1 1      0.0000
    23 H1A      4.8642  -2.6999  -0.5181   H         1 1      0.0000
    24 H1C      5.2421  -1.2653  -1.4688   H         1 1      0.0000
    25 H1B      5.6563  -1.3219   0.2426   H         1 1      0.0000
    26 H10A    -0.6058   0.9618  -0.0289   H         1 1      0.0000
    27 H10B    -0.6013   0.2734   1.6047   H         1 1      0.0000
    28 H9B     -1.3469  -1.3809  -0.8308   H         1 1      0.0000
    29 H5      -6.4077   1.4544  -0.2371   H         1 1      0.0000
    30 H3      -3.1716  -0.6518  -2.0610   H         1 1      0.0000
    31 H12B     1.7734   1.4947   0.2163   H         1 1      0.0000
    32 C15      4.3063   2.4545   0.2655   C.3       1 1      0.0000
    33 H15A     5.0976   3.0967   0.6715   H         1 1      0.0000
    34 H15C     3.3442   2.8451   0.6195   H         1 1      0.0000
    35 OH       1.1192  -1.6724   1.0879   O.3       1 1      0.0000
    36 OH1      0.4602  -2.3538   0.8062   H         1 1      0.0000
    37 H22      1.0633  -0.7162  -0.7467   H         1 1      0.0000
    38 C16      4.3422   2.5182  -1.2439   C.3       1 1      0.0000
    39 H16C     3.5525   1.9063  -1.6747   H         1 1      0.0000
    40 H16A     4.2059   3.5406  -1.5902   H         1 1      0.0000
    41 H16B     5.2959   2.1565  -1.6226   H         1 1      0.0000
@<TRIPOS>BOND
     1     1     2   ar
     2     1     6   ar
     3     1    29    1
     4     2     3   ar
     5     2     7    1
     6     3     4   ar
     7     3    30    1
     8     4     5   ar
     9     4     8    1
    10     5     6   ar
    11     5     9    1
    12     6    10    1
    13     8    11    1
    14     8    12    1
    15     8    28    1
    16    11    13    1
    17    11    26    1
    18    11    27    1
    19    13    14    1
    20    14    15    1
    21    14    16    1
    22    14    31    1
    23    16    17    1
    24    16    20    2
    25    17    18    1
    26    17    19    1
    27    17    32    1
    28    20    21    1
    29    20    22    1
    30    22    23    1
    31    22    24    1
    32    22    25    1
    33    32    33    1
    34    32    34    1
    35    13    35    1
    36    35    36    1
    37    13    37    1
    38    32    38    1
    39    38    39    1
    40    38    40    1
    41    38    41    1
@<TRIPOS>SUBSTRUCTURE
     1 1           1 GROUP             0 ****  ****    0  
@<TRIPOS>MOLECULE
Molecule Name_00001_00484
    41    41     1     0     0
SMALL
NO_CHARGES
****
Generated from the CSD

@<TRIPOS>ATOM
     1 C5      -5.3808   1.0031  -0.0563   C.ar      1 1      0.0000
     2 C4      -4.8710   0.3584  -1.1626   C.ar      1 1      0.0000
     3 C3      -3.6388  -0.2701  -1.0950   C.ar      1 1      0.0000
     4 C8      -2.9012  -0.2627   0.0789   C.ar      1 1      0.0000
     5 C7      -3.4257   0.3907   1.1834   C.ar      1 1      0.0000
     6 C6      -4.6578   1.0195   1.1169   C.ar      1 1      0.0000
     7 H4      -5.4363   0.3432  -2.0886   H         1 1      0.0000
     8 C9      -1.5566  -0.9451   0.1512   C.3       1 1      0.0000
     9 H7      -2.8639   0.4097   2.1115   H         1 1      0.0000
    10 H6      -5.0549   1.5261   1.9903   H         1 1      0.0000
    11 C10     -0.4076   0.0211   0.4330   C.3       1 1      0.0000
    12 H9A     -1.5854  -1.7056   0.9413   H         1 1      0.0000
    13 C11      0.9848  -0.5286   0.1683   C.3       1 1      0.0000
    14 C12      2.0683   0.5046   0.4569   C.3       1 1      0.0000
    15 H12A     2.0464   0.7586   1.5239   H         1 1      0.0000
    16 C13      3.4416   0.0247   0.0973   C.2       1 1      0.0000
    17 C14      4.5964   0.9224   0.4263   C.3       1 1      0.0000
    18 H14B     5.5128   0.4827   0.0138   H         1 1      0.0000
    19 H14A     4.7151   0.9736   1.5155   H         1 1      0.0000
    20 N        3.6181  -1.1518  -0.4703   N.pl3     1 1      0.0000
    21 HN       2.7880  -1.7352  -0.5741   H         1 1      0.0000
    22 C        4.8892  -1.7578  -0.8389   C.3       1 1      0.0000
    23 H1A      4.7307  -2.6983  -1.3623   H         1 1      0.0000
    24 H1C      5.4556  -1.0977  -1.4925   H         1 1      0.0000
    25 H1B      5.4923  -1.9587   0.0440   H         1 1      0.0000
    26 H10A    -0.5492   0.9156  -0.1860   H         1 1      0.0000
    27 H10B    -0.4640   0.3286   1.4846   H         1 1      0.0000
    28 H9B     -1.3663  -1.4585  -0.7994   H         1 1      0.0000
    29 H5      -6.3463   1.4954  -0.1088   H         1 1      0.0000
    30 H3      -3.2458  -0.7745  -1.9716   H         1 1      0.0000
    31 H12B     1.8502   1.4192  -0.1083   H         1 1      0.0000
    32 C15      4.4417   2.3297  -0.1197   C.3       1 1      0.0000
    33 H15A     4.1567   2.2758  -1.1777   H         1 1      0.0000
    34 H15C     5.4070   2.8473  -0.0595   H         1 1      0.0000
    35 OH       1.1979  -1.6749   0.9968   O.3       1 1      0.0000
    36 OH1      0.5196  -2.3637   0.7887   H         1 1      0.0000
    37 H22      1.0540  -0.8318  -0.8878   H         1 1      0.0000
    38 C16      3.4029   3.1284   0.6331   C.3       1 1      0.0000
    39 H16C     3.1051   2.6125   1.5436   H         1 1      0.0000
    40 H16A     3.7934   4.1056   0.9095   H         1 1      0.0000
    41 H16B     2.5149   3.2785   0.0227   H         1 1      0.0000
@<TRIPOS>BOND
     1     1     2   ar
     2     1     6   ar
     3     1    29    1
     4     2     3   ar
     5     2     7    1
     6     3     4   ar
     7     3    30    1
     8     4     5   ar
     9     4     8    1
    10     5     6   ar
    11     5     9    1
    12     6    10    1
    13     8    11    1
    14     8    12    1
    15     8    28    1
    16    11    13    1
    17    11    26    1
    18    11    27    1
    19    13    14    1
    20    14    15    1
    21    14    16    1
    22    14    31    1
    23    16    17    1
    24    16    20    2
    25    17    18    1
    26    17    19    1
    27    17    32    1
    28    20    21    1
    29    20    22    1
    30    22    23    1
    31    22    24    1
    32    22    25    1
    33    32    33    1
    34    32    34    1
    35    13    35    1
    36    35    36    1
    37    13    37    1
    38    32    38    1
    39    38    39    1
    40    38    40    1
    41    38    41    1
@<TRIPOS>SUBSTRUCTURE
     1 1           1 GROUP             0 ****  ****    0  
@<TRIPOS>MOLECULE
Molecule Name_00001_00485
    41    41     1     0     0
SMALL
NO_CHARGES
****
Generated from the CSD

@<TRIPOS>ATOM
     1 C5      -4.1996   1.4590  -0.9614   C.ar      1 1      0.0000
     2 C4      -4.6178   1.1352   0.3113   C.ar      1 1      0.0000
     3 C3      -3.8858   0.2443   1.0784   C.ar      1 1      0.0000
     4 C8      -2.7266  -0.3333   0.5837   C.ar      1 1      0.0000
     5 C7      -2.3185   0.0007  -0.6985   C.ar      1 1      0.0000
     6 C6      -3.0497   0.8914  -1.4664   C.ar      1 1      0.0000
     7 H4      -5.5226   1.5792   0.7131   H         1 1      0.0000
     8 C9      -1.9308  -1.3068   1.4189   C.3       1 1      0.0000
     9 H7      -1.4149  -0.4413  -1.1054   H         1 1      0.0000
    10 H6      -2.7167   1.1430  -2.4679   H         1 1      0.0000
    11 C10     -0.5494  -0.7795   1.8021   C.3       1 1      0.0000
    12 H9A     -2.4926  -1.5334   2.3335   H         1 1      0.0000
    13 C11      0.4526  -0.6908   0.6622   C.3       1 1      0.0000
    14 C12      1.8283  -0.2475   1.1477   C.3       1 1      0.0000
    15 H12A     2.2263  -1.0035   1.8358   H         1 1      0.0000
    16 C13      2.8036  -0.0445   0.0282   C.2       1 1      0.0000
    17 C14      3.1139   1.3667  -0.3716   C.3       1 1      0.0000
    18 H14B     2.1870   1.9528  -0.3429   H         1 1      0.0000
    19 H14A     3.4800   1.3769  -1.4055   H         1 1      0.0000
    20 N        3.3750  -1.0742  -0.5640   N.pl3     1 1      0.0000
    21 HN       3.1768  -1.9931  -0.1684   H         1 1      0.0000
    22 C        4.3615  -1.0253  -1.6332   C.3       1 1      0.0000
    23 H1A      5.0787  -1.8374  -1.5336   H         1 1      0.0000
    24 H1C      3.8810  -1.1150  -2.6052   H         1 1      0.0000
    25 H1B      4.9088  -0.0853  -1.6117   H         1 1      0.0000
    26 H10A    -0.6699   0.2215   2.2345   H         1 1      0.0000
    27 H10B    -0.1328  -1.4324   2.5789   H         1 1      0.0000
    28 H9B     -1.8129  -2.2428   0.8592   H         1 1      0.0000
    29 H5      -4.7727   2.1571  -1.5626   H         1 1      0.0000
    30 H3      -4.2237  -0.0047   2.0789   H         1 1      0.0000
    31 H12B     1.7253   0.6910   1.7062   H         1 1      0.0000
    32 C15      4.1419   2.0352   0.5223   C.3       1 1      0.0000
    33 H15A     5.0713   1.4529   0.4997   H         1 1      0.0000
    34 H15C     3.7735   2.0370   1.5556   H         1 1      0.0000
    35 OH       0.5660  -1.9744   0.0414   O.3       1 1      0.0000
    36 OH1     -0.2861  -2.2014  -0.4062   H         1 1      0.0000
    37 H22      0.0857   0.0350  -0.0799   H         1 1      0.0000
    38 C16      4.4368   3.4554   0.0984   C.3       1 1      0.0000
    39 H16C     3.5350   4.0631   0.1323   H         1 1      0.0000
    40 H16A     5.1758   3.9086   0.7559   H         1 1      0.0000
    41 H16B     4.8254   3.4819  -0.9175   H         1 1      0.0000
@<TRIPOS>BOND
     1     1     2   ar
     2     1     6   ar
     3     1    29    1
     4     2     3   ar
     5     2     7    1
     6     3     4   ar
     7     3    30    1
     8     4     5   ar
     9     4     8    1
    10     5     6   ar
    11     5     9    1
    12     6    10    1
    13     8    11    1
    14     8    12    1
    15     8    28    1
    16    11    13    1
    17    11    26    1
    18    11    27    1
    19    13    14    1
    20    14    15    1
    21    14    16    1
    22    14    31    1
    23    16    17    1
    24    16    20    2
    25    17    18    1
    26    17    19    1
    27    17    32    1
    28    20    21    1
    29    20    22    1
    30    22    23    1
    31    22    24    1
    32    22    25    1
    33    32    33    1
    34    32    34    1
    35    13    35    1
    36    35    36    1
    37    13    37    1
    38    32    38    1
    39    38    39    1
    40    38    40    1
    41    38    41    1
@<TRIPOS>SUBSTRUCTURE
     1 1           1 GROUP             0 ****  ****    0  
@<TRIPOS>MOLECULE
Molecule Name_00001_00486
    41    41     1     0     0
SMALL
NO_CHARGES
****
Generated from the CSD

@<TRIPOS>ATOM
     1 C5      -3.8572   1.5911   1.2108   C.ar      1 1      0.0000
     2 C4      -3.5511   1.7469  -0.1239   C.ar      1 1      0.0000
     3 C3      -2.9076   0.7325  -0.8129   C.ar      1 1      0.0000
     4 C8      -2.5627  -0.4503  -0.1771   C.ar      1 1      0.0000
     5 C7      -2.8757  -0.5928   1.1660   C.ar      1 1      0.0000
     6 C6      -3.5192   0.4210   1.8559   C.ar      1 1      0.0000
     7 H4      -3.8148   2.6664  -0.6359   H         1 1      0.0000
     8 C9      -1.8584  -1.5544  -0.9278   C.3       1 1      0.0000
     9 H7      -2.6132  -1.5099   1.6829   H         1 1      0.0000
    10 H6      -3.7578   0.2939   2.9067   H         1 1      0.0000
    11 C10     -0.5453  -1.1041  -1.5650   C.3       1 1      0.0000
    12 H9A     -1.6544  -2.3812  -0.2362   H         1 1      0.0000
    13 C11      0.5874  -0.8213  -0.5913   C.3       1 1      0.0000
    14 C12      1.8718  -0.4269  -1.3121   C.3       1 1      0.0000
    15 H12A     1.7079   0.5175  -1.8456   H         1 1      0.0000
    16 C13      3.0360  -0.2669  -0.3824   C.2       1 1      0.0000
    17 C14      3.5228   1.1260  -0.1166   C.3       1 1      0.0000
    18 H14B     3.4814   1.6979  -1.0518   H         1 1      0.0000
    19 H14A     4.5717   1.0874   0.2017   H         1 1      0.0000
    20 N        3.5925  -1.3163   0.1890   N.pl3     1 1      0.0000
    21 HN       3.1408  -2.2158   0.0247   H         1 1      0.0000
    22 C        4.6988  -1.3071   1.1351   C.3       1 1      0.0000
    23 H1A      4.5822  -2.0986   1.8724   H         1 1      0.0000
    24 H1C      5.6460  -1.4591   0.6218   H         1 1      0.0000
    25 H1B      4.7484  -0.3570   1.6627   H         1 1      0.0000
    26 H10A    -0.2147  -1.8838  -2.2622   H         1 1      0.0000
    27 H10B    -0.7370  -0.1938  -2.1464   H         1 1      0.0000
    28 H9B     -2.5248  -1.9327  -1.7128   H         1 1      0.0000
    29 H5      -4.3616   2.3855   1.7510   H         1 1      0.0000
    30 H3      -2.6704   0.8651  -1.8634   H         1 1      0.0000
    31 H12B     2.1134  -1.1940  -2.0582   H         1 1      0.0000
    32 C15      2.7137   1.8572   0.9387   C.3       1 1      0.0000
    33 H15A     2.7128   1.2677   1.8638   H         1 1      0.0000
    34 H15C     1.6748   1.9462   0.5980   H         1 1      0.0000
    35 OH       0.1955   0.2410   0.2827   O.3       1 1      0.0000
    36 OH1     -0.3047  -0.1305   1.0506   H         1 1      0.0000
    37 H22      0.7780  -1.7257   0.0070   H         1 1      0.0000
    38 C16      3.2599   3.2357   1.2302   C.3       1 1      0.0000
    39 H16C     3.2524   3.8512   0.3331   H         1 1      0.0000
    40 H16A     2.6613   3.7353   1.9890   H         1 1      0.0000
    41 H16B     4.2844   3.1762   1.5917   H         1 1      0.0000
@<TRIPOS>BOND
     1     1     2   ar
     2     1     6   ar
     3     1    29    1
     4     2     3   ar
     5     2     7    1
     6     3     4   ar
     7     3    30    1
     8     4     5   ar
     9     4     8    1
    10     5     6   ar
    11     5     9    1
    12     6    10    1
    13     8    11    1
    14     8    12    1
    15     8    28    1
    16    11    13    1
    17    11    26    1
    18    11    27    1
    19    13    14    1
    20    14    15    1
    21    14    16    1
    22    14    31    1
    23    16    17    1
    24    16    20    2
    25    17    18    1
    26    17    19    1
    27    17    32    1
    28    20    21    1
    29    20    22    1
    30    22    23    1
    31    22    24    1
    32    22    25    1
    33    32    33    1
    34    32    34    1
    35    13    35    1
    36    35    36    1
    37    13    37    1
    38    32    38    1
    39    38    39    1
    40    38    40    1
    41    38    41    1
@<TRIPOS>SUBSTRUCTURE
     1 1           1 GROUP             0 ****  ****    0  
@<TRIPOS>MOLECULE
Molecule Name_00001_00487
    41    41     1     0     0
SMALL
NO_CHARGES
****
Generated from the CSD

@<TRIPOS>ATOM
     1 C5      -4.7141   0.4598  -0.7360   C.ar      1 1      0.0000
     2 C4      -4.2502   0.9748   0.4552   C.ar      1 1      0.0000
     3 C3      -2.9106   0.8607   0.7875   C.ar      1 1      0.0000
     4 C8      -2.0181   0.2314  -0.0666   C.ar      1 1      0.0000
     5 C7      -2.4989  -0.2831  -1.2608   C.ar      1 1      0.0000
     6 C6      -3.8383  -0.1695  -1.5941   C.ar      1 1      0.0000
     7 H4      -4.9360   1.4708   1.1341   H         1 1      0.0000
     8 C9      -0.5586   0.1043   0.2976   C.3       1 1      0.0000
     9 H7      -1.8175  -0.7808  -1.9428   H         1 1      0.0000
    10 H6      -4.1990  -0.5768  -2.5328   H         1 1      0.0000
    11 C10     -0.2546  -1.1372   1.1338   C.3       1 1      0.0000
    12 H9A      0.0363   0.0687  -0.6235   H         1 1      0.0000
    13 C11      1.0503  -1.0938   1.9126   C.3       1 1      0.0000
    14 C12      2.2598  -1.3000   1.0075   C.3       1 1      0.0000
    15 H12A     2.2097  -2.3025   0.5650   H         1 1      0.0000
    16 C13      2.3448  -0.2848  -0.0915   C.2       1 1      0.0000
    17 C14      2.8070   1.0937   0.2742   C.3       1 1      0.0000
    18 H14B     2.3561   1.3731   1.2345   H         1 1      0.0000
    19 H14A     2.4493   1.8062  -0.4791   H         1 1      0.0000
    20 N        2.0397  -0.6070  -1.3327   N.pl3     1 1      0.0000
    21 HN       1.8239  -1.5884  -1.5073   H         1 1      0.0000
    22 C        2.1105   0.2610  -2.4991   C.3       1 1      0.0000
    23 H1A      2.4056  -0.3025  -3.3818   H         1 1      0.0000
    24 H1C      1.1440   0.7196  -2.6974   H         1 1      0.0000
    25 H1B      2.8372   1.0560  -2.3459   H         1 1      0.0000
    26 H10A    -1.0766  -1.2839   1.8452   H         1 1      0.0000
    27 H10B    -0.2299  -2.0070   0.4658   H         1 1      0.0000
    28 H9B     -0.2526   0.9961   0.8583   H         1 1      0.0000
    29 H5      -5.7635   0.5493  -0.9968   H         1 1      0.0000
    30 H3      -2.5552   1.2689   1.7279   H         1 1      0.0000
    31 H12B     3.1730  -1.2479   1.6132   H         1 1      0.0000
    32 C15      4.3153   1.2139   0.3900   C.3       1 1      0.0000
    33 H15A     4.7730   0.9339  -0.5668   H         1 1      0.0000
    34 H15C     4.6749   0.5106   1.1512   H         1 1      0.0000
    35 OH       1.1624   0.1754   2.5625   O.3       1 1      0.0000
    36 OH1      0.3925   0.3049   3.1696   H         1 1      0.0000
    37 H22      1.0370  -1.8873   2.6758   H         1 1      0.0000
    38 C16      4.7548   2.6118   0.7592   C.3       1 1      0.0000
    39 H16C     4.3324   2.9086   1.7169   H         1 1      0.0000
    40 H16A     5.8387   2.6680   0.8348   H         1 1      0.0000
    41 H16B     4.4298   3.3292   0.0085   H         1 1      0.0000
@<TRIPOS>BOND
     1     1     2   ar
     2     1     6   ar
     3     1    29    1
     4     2     3   ar
     5     2     7    1
     6     3     4   ar
     7     3    30    1
     8     4     5   ar
     9     4     8    1
    10     5     6   ar
    11     5     9    1
    12     6    10    1
    13     8    11    1
    14     8    12    1
    15     8    28    1
    16    11    13    1
    17    11    26    1
    18    11    27    1
    19    13    14    1
    20    14    15    1
    21    14    16    1
    22    14    31    1
    23    16    17    1
    24    16    20    2
    25    17    18    1
    26    17    19    1
    27    17    32    1
    28    20    21    1
    29    20    22    1
    30    22    23    1
    31    22    24    1
    32    22    25    1
    33    32    33    1
    34    32    34    1
    35    13    35    1
    36    35    36    1
    37    13    37    1
    38    32    38    1
    39    38    39    1
    40    38    40    1
    41    38    41    1
@<TRIPOS>SUBSTRUCTURE
     1 1           1 GROUP             0 ****  ****    0  
@<TRIPOS>MOLECULE
Molecule Name_00001_00488
    41    41     1     0     0
SMALL
NO_CHARGES
****
Generated from the CSD

@<TRIPOS>ATOM
     1 C5      -3.2862  -0.2849   2.0225   C.ar      1 1      0.0000
     2 C4      -2.8957   0.9665   1.5971   C.ar      1 1      0.0000
     3 C3      -2.3360   1.1310   0.3411   C.ar      1 1      0.0000
     4 C8      -2.1603   0.0473  -0.5056   C.ar      1 1      0.0000
     5 C7      -2.5565  -1.2058  -0.0641   C.ar      1 1      0.0000
     6 C6      -3.1163  -1.3713   1.1917   C.ar      1 1      0.0000
     7 H4      -3.0271   1.8248   2.2477   H         1 1      0.0000
     8 C9      -1.5472   0.2264  -1.8734   C.3       1 1      0.0000
     9 H7      -2.4264  -2.0675  -0.7105   H         1 1      0.0000
    10 H6      -3.4219  -2.3585   1.5224   H         1 1      0.0000
    11 C10     -0.0216   0.1522  -1.8616   C.3       1 1      0.0000
    12 H9A     -1.9372  -0.5502  -2.5428   H         1 1      0.0000
    13 C11      0.6812   1.3134  -1.1770   C.3       1 1      0.0000
    14 C12      2.1977   1.1585  -1.2085   C.3       1 1      0.0000
    15 H12A     2.6608   2.0959  -0.8766   H         1 1      0.0000
    16 C13      2.6871   0.0384  -0.3416   C.2       1 1      0.0000
    17 C14      3.2522   0.3978   0.9997   C.3       1 1      0.0000
    18 H14B     3.8533   1.3096   0.8957   H         1 1      0.0000
    19 H14A     3.9215  -0.4034   1.3360   H         1 1      0.0000
    20 N        2.6028  -1.2136  -0.7453   N.pl3     1 1      0.0000
    21 HN       2.1219  -1.3742  -1.6302   H         1 1      0.0000
    22 C        3.0026  -2.3971   0.0020   C.3       1 1      0.0000
    23 H1A      2.3379  -3.2314  -0.2127   H         1 1      0.0000
    24 H1C      4.0155  -2.6948  -0.2608   H         1 1      0.0000
    25 H1B      2.9728  -2.2068   1.0727   H         1 1      0.0000
    26 H10A     0.2749  -0.7762  -1.3581   H         1 1      0.0000
    27 H10B     0.3303   0.0980  -2.8992   H         1 1      0.0000
    28 H9B     -1.8542   1.1994  -2.2765   H         1 1      0.0000
    29 H5      -3.7249  -0.4141   3.0064   H         1 1      0.0000
    30 H3      -2.0313   2.1201   0.0156   H         1 1      0.0000
    31 H12B     2.5173   0.9760  -2.2420   H         1 1      0.0000
    32 C15      2.1909   0.6312   2.0590   C.3       1 1      0.0000
    33 H15A     1.5845  -0.2766   2.1668   H         1 1      0.0000
    34 H15C     1.5265   1.4401   1.7308   H         1 1      0.0000
    35 OH       0.3208   2.5300  -1.8371   O.3       1 1      0.0000
    36 OH1     -0.6517   2.6824  -1.7412   H         1 1      0.0000
    37 H22      0.3499   1.3629  -0.1282   H         1 1      0.0000
    38 C16      2.7860   0.9917   3.4005   C.3       1 1      0.0000
    39 H16C     3.3764   1.9027   3.3283   H         1 1      0.0000
    40 H16A     2.0033   1.1527   4.1389   H         1 1      0.0000
    41 H16B     3.4339   0.1956   3.7615   H         1 1      0.0000
@<TRIPOS>BOND
     1     1     2   ar
     2     1     6   ar
     3     1    29    1
     4     2     3   ar
     5     2     7    1
     6     3     4   ar
     7     3    30    1
     8     4     5   ar
     9     4     8    1
    10     5     6   ar
    11     5     9    1
    12     6    10    1
    13     8    11    1
    14     8    12    1
    15     8    28    1
    16    11    13    1
    17    11    26    1
    18    11    27    1
    19    13    14    1
    20    14    15    1
    21    14    16    1
    22    14    31    1
    23    16    17    1
    24    16    20    2
    25    17    18    1
    26    17    19    1
    27    17    32    1
    28    20    21    1
    29    20    22    1
    30    22    23    1
    31    22    24    1
    32    22    25    1
    33    32    33    1
    34    32    34    1
    35    13    35    1
    36    35    36    1
    37    13    37    1
    38    32    38    1
    39    38    39    1
    40    38    40    1
    41    38    41    1
@<TRIPOS>SUBSTRUCTURE
     1 1           1 GROUP             0 ****  ****    0  
@<TRIPOS>MOLECULE
Molecule Name_00001_00489
    41    41     1     0     0
SMALL
NO_CHARGES
****
Generated from the CSD

@<TRIPOS>ATOM
     1 C5      -3.7666   0.7980  -1.3674   C.ar      1 1      0.0000
     2 C4      -3.4293  -0.5086  -1.0874   C.ar      1 1      0.0000
     3 C3      -2.6076  -0.7995  -0.0112   C.ar      1 1      0.0000
     4 C8      -2.1136   0.2113   0.7988   C.ar      1 1      0.0000
     5 C7      -2.4601   1.5211   0.5047   C.ar      1 1      0.0000
     6 C6      -3.2817   1.8131  -0.5712   C.ar      1 1      0.0000
     7 H4      -3.8083  -1.3111  -1.7116   H         1 1      0.0000
     8 C9      -1.2154  -0.1060   1.9699   C.3       1 1      0.0000
     9 H7      -2.0830   2.3273   1.1252   H         1 1      0.0000
    10 H6      -3.5442   2.8434  -0.7879   H         1 1      0.0000
    11 C10      0.2615  -0.1874   1.5886   C.3       1 1      0.0000
    12 H9A     -1.3438   0.6676   2.7370   H         1 1      0.0000
    13 C11      0.6447  -1.3740   0.7191   C.3       1 1      0.0000
    14 C12      2.1412  -1.4064   0.4288   C.3       1 1      0.0000
    15 H12A     2.3929  -2.3608  -0.0499   H         1 1      0.0000
    16 C13      2.5873  -0.2832  -0.4572   C.2       1 1      0.0000
    17 C14      3.5035   0.7443   0.1365   C.3       1 1      0.0000
    18 H14B     4.0740   1.2168  -0.6726   H         1 1      0.0000
    19 H14A     4.2209   0.2475   0.8010   H         1 1      0.0000
    20 N        2.1973  -0.2201  -1.7147   N.pl3     1 1      0.0000
    21 HN       1.6503  -1.0083  -2.0608   H         1 1      0.0000
    22 C        2.5787   0.7870  -2.6941   C.3       1 1      0.0000
    23 H1A      2.3603   0.4452  -3.7037   H         1 1      0.0000
    24 H1C      2.0348   1.7140  -2.5253   H         1 1      0.0000
    25 H1B      3.6431   1.0031  -2.6322   H         1 1      0.0000
    26 H10A     0.5316   0.7326   1.0558   H         1 1      0.0000
    27 H10B     0.8552  -0.2278   2.5102   H         1 1      0.0000
    28 H9B     -1.5246  -1.0636   2.4066   H         1 1      0.0000
    29 H5      -4.4105   1.0264  -2.2103   H         1 1      0.0000
    30 H3      -2.3474  -1.8313   0.2006   H         1 1      0.0000
    31 H12B     2.6908  -1.3534   1.3768   H         1 1      0.0000
    32 C15      2.7755   1.8241   0.9155   C.3       1 1      0.0000
    33 H15A     2.2371   1.3628   1.7526   H         1 1      0.0000
    34 H15C     2.0337   2.3006   0.2628   H         1 1      0.0000
    35 OH       0.2711  -2.5815   1.3886   O.3       1 1      0.0000
    36 OH1     -0.7148  -2.6543   1.4129   H         1 1      0.0000
    37 H22      0.0982  -1.3091  -0.2345   H         1 1      0.0000
    38 C16      3.7148   2.8794   1.4520   C.3       1 1      0.0000
    39 H16C     4.2478   3.3700   0.6402   H         1 1      0.0000
    40 H16A     3.1662   3.6389   2.0050   H         1 1      0.0000
    41 H16B     4.4497   2.4372   2.1215   H         1 1      0.0000
@<TRIPOS>BOND
     1     1     2   ar
     2     1     6   ar
     3     1    29    1
     4     2     3   ar
     5     2     7    1
     6     3     4   ar
     7     3    30    1
     8     4     5   ar
     9     4     8    1
    10     5     6   ar
    11     5     9    1
    12     6    10    1
    13     8    11    1
    14     8    12    1
    15     8    28    1
    16    11    13    1
    17    11    26    1
    18    11    27    1
    19    13    14    1
    20    14    15    1
    21    14    16    1
    22    14    31    1
    23    16    17    1
    24    16    20    2
    25    17    18    1
    26    17    19    1
    27    17    32    1
    28    20    21    1
    29    20    22    1
    30    22    23    1
    31    22    24    1
    32    22    25    1
    33    32    33    1
    34    32    34    1
    35    13    35    1
    36    35    36    1
    37    13    37    1
    38    32    38    1
    39    38    39    1
    40    38    40    1
    41    38    41    1
@<TRIPOS>SUBSTRUCTURE
     1 1           1 GROUP             0 ****  ****    0  
@<TRIPOS>MOLECULE
Molecule Name_00001_00490
    41    41     1     0     0
SMALL
NO_CHARGES
****
Generated from the CSD

@<TRIPOS>ATOM
     1 C5      -4.3129  -1.3685  -0.5934   C.ar      1 1      0.0000
     2 C4      -4.2479  -0.8683   0.6891   C.ar      1 1      0.0000
     3 C3      -3.4006   0.1873   0.9819   C.ar      1 1      0.0000
     4 C8      -2.6086   0.7566  -0.0033   C.ar      1 1      0.0000
     5 C7      -2.6833   0.2425  -1.2887   C.ar      1 1      0.0000
     6 C6      -3.5302  -0.8131  -1.5825   C.ar      1 1      0.0000
     7 H4      -4.8619  -1.3026   1.4712   H         1 1      0.0000
     8 C9      -1.6827   1.9051   0.3170   C.3       1 1      0.0000
     9 H7      -2.0706   0.6725  -2.0741   H         1 1      0.0000
    10 H6      -3.5777  -1.2037  -2.5936   H         1 1      0.0000
    11 C10     -0.6829   1.5790   1.4248   C.3       1 1      0.0000
    12 H9A     -1.1322   2.1823  -0.5904   H         1 1      0.0000
    13 C11      0.3852   0.5611   1.0585   C.3       1 1      0.0000
    14 C12      1.3885   1.1247   0.0582   C.3       1 1      0.0000
    15 H12A     1.8842   1.9975   0.5007   H         1 1      0.0000
    16 C13      2.4293   0.1262  -0.3485   C.2       1 1      0.0000
    17 C14      3.8054   0.6426  -0.6439   C.3       1 1      0.0000
    18 H14B     3.7163   1.5903  -1.1892   H         1 1      0.0000
    19 H14A     4.3251  -0.0681  -1.2981   H         1 1      0.0000
    20 N        2.1400  -1.1576  -0.4232   N.pl3     1 1      0.0000
    21 HN       1.2066  -1.4315  -0.1168   H         1 1      0.0000
    22 C        3.0544  -2.2367  -0.7673   C.3       1 1      0.0000
    23 H1A      2.8127  -3.1393  -0.2099   H         1 1      0.0000
    24 H1C      2.9954  -2.4680  -1.8287   H         1 1      0.0000
    25 H1B      4.0815  -1.9612  -0.5375   H         1 1      0.0000
    26 H10A    -0.1849   2.5092   1.7251   H         1 1      0.0000
    27 H10B    -1.2382   1.2008   2.2920   H         1 1      0.0000
    28 H9B     -2.2825   2.7717   0.6213   H         1 1      0.0000
    29 H5      -4.9768  -2.1954  -0.8233   H         1 1      0.0000
    30 H3      -3.3562   0.5736   1.9949   H         1 1      0.0000
    31 H12B     0.8505   1.4639  -0.8357   H         1 1      0.0000
    32 C15      4.6439   0.8722   0.5999   C.3       1 1      0.0000
    33 H15A     4.7355  -0.0717   1.1513   H         1 1      0.0000
    34 H15C     4.1323   1.5916   1.2511   H         1 1      0.0000
    35 OH       1.0786   0.1664   2.2456   O.3       1 1      0.0000
    36 OH1      0.4365  -0.2222   2.8895   H         1 1      0.0000
    37 H22     -0.1004  -0.3226   0.6165   H         1 1      0.0000
    38 C16      6.0252   1.3922   0.2751   C.3       1 1      0.0000
    39 H16C     5.9655   2.3409  -0.2542   H         1 1      0.0000
    40 H16A     6.6026   1.5470   1.1842   H         1 1      0.0000
    41 H16B     6.5649   0.6869  -0.3533   H         1 1      0.0000
@<TRIPOS>BOND
     1     1     2   ar
     2     1     6   ar
     3     1    29    1
     4     2     3   ar
     5     2     7    1
     6     3     4   ar
     7     3    30    1
     8     4     5   ar
     9     4     8    1
    10     5     6   ar
    11     5     9    1
    12     6    10    1
    13     8    11    1
    14     8    12    1
    15     8    28    1
    16    11    13    1
    17    11    26    1
    18    11    27    1
    19    13    14    1
    20    14    15    1
    21    14    16    1
    22    14    31    1
    23    16    17    1
    24    16    20    2
    25    17    18    1
    26    17    19    1
    27    17    32    1
    28    20    21    1
    29    20    22    1
    30    22    23    1
    31    22    24    1
    32    22    25    1
    33    32    33    1
    34    32    34    1
    35    13    35    1
    36    35    36    1
    37    13    37    1
    38    32    38    1
    39    38    39    1
    40    38    40    1
    41    38    41    1
@<TRIPOS>SUBSTRUCTURE
     1 1           1 GROUP             0 ****  ****    0  
@<TRIPOS>MOLECULE
Molecule Name_00001_00491
    41    41     1     0     0
SMALL
NO_CHARGES
****
Generated from the CSD

@<TRIPOS>ATOM
     1 C5      -4.2099  -0.7072  -1.3278   C.ar      1 1      0.0000
     2 C4      -4.2481  -0.9394   0.0302   C.ar      1 1      0.0000
     3 C3      -3.4104  -0.2365   0.8799   C.ar      1 1      0.0000
     4 C8      -2.5248   0.7076   0.3834   C.ar      1 1      0.0000
     5 C7      -2.4963   0.9300  -0.9848   C.ar      1 1      0.0000
     6 C6      -3.3337   0.2277  -1.8354   C.ar      1 1      0.0000
     7 H4      -4.9360  -1.6747   0.4344   H         1 1      0.0000
     8 C9      -1.6095   1.4713   1.3096   C.3       1 1      0.0000
     9 H7      -1.8095   1.6635  -1.3942   H         1 1      0.0000
    10 H6      -3.2997   0.4137  -2.9037   H         1 1      0.0000
    11 C10     -0.7166   0.5637   2.1535   C.3       1 1      0.0000
    12 H9A     -0.9767   2.1400   0.7131   H         1 1      0.0000
    13 C11      0.3606  -0.1857   1.3858   C.3       1 1      0.0000
    14 C12      1.4577   0.7485   0.8873   C.3       1 1      0.0000
    15 H12A     1.9288   1.2395   1.7477   H         1 1      0.0000
    16 C13      2.5114   0.0380   0.0933   C.2       1 1      0.0000
    17 C14      3.9174   0.5481   0.1971   C.3       1 1      0.0000
    18 H14B     4.6074  -0.2690  -0.0473   H         1 1      0.0000
    19 H14A     4.1162   0.8506   1.2325   H         1 1      0.0000
    20 N        2.2062  -1.0060  -0.6512   N.pl3     1 1      0.0000
    21 HN       1.2446  -1.3409  -0.5916   H         1 1      0.0000
    22 C        3.1271  -1.8100  -1.4414   C.3       1 1      0.0000
    23 H1A      2.6767  -2.7645  -1.7056   H         1 1      0.0000
    24 H1C      3.3953  -1.2956  -2.3619   H         1 1      0.0000
    25 H1B      4.0413  -2.0087  -0.8861   H         1 1      0.0000
    26 H10A    -0.2297   1.1766   2.9221   H         1 1      0.0000
    27 H10B    -1.3524  -0.1706   2.6632   H         1 1      0.0000
    28 H9B     -2.2176   2.0944   1.9770   H         1 1      0.0000
    29 H5      -4.8663  -1.2575  -1.9938   H         1 1      0.0000
    30 H3      -3.4476  -0.4270   1.9474   H         1 1      0.0000
    31 H12B     1.0063   1.5296   0.2632   H         1 1      0.0000
    32 C15      4.2038   1.7203  -0.7230   C.3       1 1      0.0000
    33 H15A     3.5156   2.5408  -0.4852   H         1 1      0.0000
    34 H15C     4.0170   1.4173  -1.7606   H         1 1      0.0000
    35 OH       0.9401  -1.1739   2.2421   O.3       1 1      0.0000
    36 OH1      0.2371  -1.7976   2.5500   H         1 1      0.0000
    37 H22     -0.1008  -0.6869   0.5209   H         1 1      0.0000
    38 C16      5.6263   2.2152  -0.5993   C.3       1 1      0.0000
    39 H16C     6.3323   1.4265  -0.8511   H         1 1      0.0000
    40 H16A     5.8024   3.0543  -1.2691   H         1 1      0.0000
    41 H16B     5.8334   2.5436   0.4171   H         1 1      0.0000
@<TRIPOS>BOND
     1     1     2   ar
     2     1     6   ar
     3     1    29    1
     4     2     3   ar
     5     2     7    1
     6     3     4   ar
     7     3    30    1
     8     4     5   ar
     9     4     8    1
    10     5     6   ar
    11     5     9    1
    12     6    10    1
    13     8    11    1
    14     8    12    1
    15     8    28    1
    16    11    13    1
    17    11    26    1
    18    11    27    1
    19    13    14    1
    20    14    15    1
    21    14    16    1
    22    14    31    1
    23    16    17    1
    24    16    20    2
    25    17    18    1
    26    17    19    1
    27    17    32    1
    28    20    21    1
    29    20    22    1
    30    22    23    1
    31    22    24    1
    32    22    25    1
    33    32    33    1
    34    32    34    1
    35    13    35    1
    36    35    36    1
    37    13    37    1
    38    32    38    1
    39    38    39    1
    40    38    40    1
    41    38    41    1
@<TRIPOS>SUBSTRUCTURE
     1 1           1 GROUP             0 ****  ****    0  
@<TRIPOS>MOLECULE
Molecule Name_00001_00492
    41    41     1     0     0
SMALL
NO_CHARGES
****
Generated from the CSD

@<TRIPOS>ATOM
     1 C5      -4.2012  -0.0846  -1.4902   C.ar      1 1      0.0000
     2 C4      -4.2432  -0.7860  -0.3046   C.ar      1 1      0.0000
     3 C3      -3.3919  -0.4480   0.7342   C.ar      1 1      0.0000
     4 C8      -2.4887   0.5954   0.6013   C.ar      1 1      0.0000
     5 C7      -2.4565   1.2915  -0.5973   C.ar      1 1      0.0000
     6 C6      -3.3075   0.9543  -1.6366   C.ar      1 1      0.0000
     7 H4      -4.9449  -1.6048  -0.1847   H         1 1      0.0000
     8 C9      -1.5586   0.9614   1.7326   C.3       1 1      0.0000
     9 H7      -1.7560   2.1105  -0.7226   H         1 1      0.0000
    10 H6      -3.2704   1.5091  -2.5683   H         1 1      0.0000
    11 C10     -0.6828  -0.2033   2.1902   C.3       1 1      0.0000
    12 H9A     -0.9135   1.7879   1.4098   H         1 1      0.0000
    13 C11      0.3795  -0.6479   1.1977   C.3       1 1      0.0000
    14 C12      1.4940   0.3832   1.0579   C.3       1 1      0.0000
    15 H12A     2.0335   0.4593   2.0100   H         1 1      0.0000
    16 C13      2.4680   0.0444  -0.0294   C.2       1 1      0.0000
    17 C14      3.1379   1.1834  -0.7377   C.3       1 1      0.0000
    18 H14B     2.4026   1.9824  -0.8937   H         1 1      0.0000
    19 H14A     3.4749   0.8462  -1.7256   H         1 1      0.0000
    20 N        2.7320  -1.2111  -0.3317   N.pl3     1 1      0.0000
    21 HN       2.3020  -1.9211   0.2609   H         1 1      0.0000
    22 C        3.6765  -1.6845  -1.3331   C.3       1 1      0.0000
    23 H1A      4.1515  -2.6082  -1.0090   H         1 1      0.0000
    24 H1C      3.1723  -1.8764  -2.2780   H         1 1      0.0000
    25 H1B      4.4558  -0.9462  -1.5093   H         1 1      0.0000
    26 H10A    -0.1840   0.0858   3.1235   H         1 1      0.0000
    27 H10B    -1.3323  -1.0599   2.4085   H         1 1      0.0000
    28 H9B     -2.1544   1.3156   2.5829   H         1 1      0.0000
    29 H5      -4.8682  -0.3489  -2.3041   H         1 1      0.0000
    30 H3      -3.4323  -1.0066   1.6634   H         1 1      0.0000
    31 H12B     1.0499   1.3638   0.8467   H         1 1      0.0000
    32 C15      4.3232   1.7522   0.0202   C.3       1 1      0.0000
    33 H15A     5.0620   0.9576   0.1814   H         1 1      0.0000
    34 H15C     3.9871   2.1011   1.0044   H         1 1      0.0000
    35 OH       0.9404  -1.8869   1.6403   O.3       1 1      0.0000
    36 OH1      0.2258  -2.5669   1.7101   H         1 1      0.0000
    37 H22     -0.0916  -0.7988   0.2142   H         1 1      0.0000
    38 C16      4.9801   2.8979  -0.7144   C.3       1 1      0.0000
    39 H16C     4.2748   3.7117  -0.8694   H         1 1      0.0000
    40 H16A     5.8251   3.2848  -0.1486   H         1 1      0.0000
    41 H16B     5.3435   2.5743  -1.6875   H         1 1      0.0000
@<TRIPOS>BOND
     1     1     2   ar
     2     1     6   ar
     3     1    29    1
     4     2     3   ar
     5     2     7    1
     6     3     4   ar
     7     3    30    1
     8     4     5   ar
     9     4     8    1
    10     5     6   ar
    11     5     9    1
    12     6    10    1
    13     8    11    1
    14     8    12    1
    15     8    28    1
    16    11    13    1
    17    11    26    1
    18    11    27    1
    19    13    14    1
    20    14    15    1
    21    14    16    1
    22    14    31    1
    23    16    17    1
    24    16    20    2
    25    17    18    1
    26    17    19    1
    27    17    32    1
    28    20    21    1
    29    20    22    1
    30    22    23    1
    31    22    24    1
    32    22    25    1
    33    32    33    1
    34    32    34    1
    35    13    35    1
    36    35    36    1
    37    13    37    1
    38    32    38    1
    39    38    39    1
    40    38    40    1
    41    38    41    1
@<TRIPOS>SUBSTRUCTURE
     1 1           1 GROUP             0 ****  ****    0  
@<TRIPOS>MOLECULE
Molecule Name_00001_00493
    41    41     1     0     0
SMALL
NO_CHARGES
****
Generated from the CSD

@<TRIPOS>ATOM
     1 C5      -3.8516   1.6190  -0.8074   C.ar      1 1      0.0000
     2 C4      -3.9842   0.2563  -0.9653   C.ar      1 1      0.0000
     3 C3      -3.2114  -0.6098  -0.2098   C.ar      1 1      0.0000
     4 C8      -2.2975  -0.1251   0.7131   C.ar      1 1      0.0000
     5 C7      -2.1738   1.2479   0.8605   C.ar      1 1      0.0000
     6 C6      -2.9461   2.1149   0.1056   C.ar      1 1      0.0000
     7 H4      -4.6955  -0.1388  -1.6830   H         1 1      0.0000
     8 C9      -1.4531  -1.0695   1.5340   C.3       1 1      0.0000
     9 H7      -1.4633   1.6481   1.5762   H         1 1      0.0000
    10 H6      -2.8380   3.1869   0.2331   H         1 1      0.0000
    11 C10     -0.6175  -2.0226   0.6816   C.3       1 1      0.0000
    12 H9A     -0.7829  -0.4828   2.1743   H         1 1      0.0000
    13 C11      0.5143  -1.3748  -0.0996   C.3       1 1      0.0000
    14 C12      1.6395  -0.9034   0.8150   C.3       1 1      0.0000
    15 H12A     2.1068  -1.7761   1.2875   H         1 1      0.0000
    16 C13      2.6906  -0.1198   0.0892   C.2       1 1      0.0000
    17 C14      3.4151   0.9438   0.8583   C.3       1 1      0.0000
    18 H14B     4.3913   1.1152   0.3881   H         1 1      0.0000
    19 H14A     3.5975   0.5896   1.8802   H         1 1      0.0000
    20 N        2.9723  -0.3761  -1.1727   N.pl3     1 1      0.0000
    21 HN       2.4970  -1.1757  -1.5909   H         1 1      0.0000
    22 C        3.9872   0.2763  -1.9872   C.3       1 1      0.0000
    23 H1A      4.1749  -0.2907  -2.8966   H         1 1      0.0000
    24 H1C      3.6684   1.2768  -2.2717   H         1 1      0.0000
    25 H1B      4.9245   0.3621  -1.4417   H         1 1      0.0000
    26 H10A    -0.1887  -2.7884   1.3397   H         1 1      0.0000
    27 H10B    -1.2843  -2.5264  -0.0291   H         1 1      0.0000
    28 H9B     -2.1093  -1.6573   2.1876   H         1 1      0.0000
    29 H5      -4.4570   2.2979  -1.3988   H         1 1      0.0000
    30 H3      -3.3228  -1.6810  -0.3419   H         1 1      0.0000
    31 H12B     1.2155  -0.2797   1.6116   H         1 1      0.0000
    32 C15      2.6649   2.2615   0.9195   C.3       1 1      0.0000
    33 H15A     1.6863   2.0969   1.3871   H         1 1      0.0000
    34 H15C     2.4911   2.6243  -0.1011   H         1 1      0.0000
    35 OH       1.0367  -2.3228  -1.0346   O.3       1 1      0.0000
    36 OH1      0.3166  -2.6147  -1.6464   H         1 1      0.0000
    37 H22      0.1172  -0.5087  -0.6514   H         1 1      0.0000
    38 C16      3.4157   3.3158   1.6995   C.3       1 1      0.0000
    39 H16C     4.3837   3.5157   1.2447   H         1 1      0.0000
    40 H16A     2.8551   4.2478   1.7266   H         1 1      0.0000
    41 H16B     3.5833   2.9911   2.7243   H         1 1      0.0000
@<TRIPOS>BOND
     1     1     2   ar
     2     1     6   ar
     3     1    29    1
     4     2     3   ar
     5     2     7    1
     6     3     4   ar
     7     3    30    1
     8     4     5   ar
     9     4     8    1
    10     5     6   ar
    11     5     9    1
    12     6    10    1
    13     8    11    1
    14     8    12    1
    15     8    28    1
    16    11    13    1
    17    11    26    1
    18    11    27    1
    19    13    14    1
    20    14    15    1
    21    14    16    1
    22    14    31    1
    23    16    17    1
    24    16    20    2
    25    17    18    1
    26    17    19    1
    27    17    32    1
    28    20    21    1
    29    20    22    1
    30    22    23    1
    31    22    24    1
    32    22    25    1
    33    32    33    1
    34    32    34    1
    35    13    35    1
    36    35    36    1
    37    13    37    1
    38    32    38    1
    39    38    39    1
    40    38    40    1
    41    38    41    1
@<TRIPOS>SUBSTRUCTURE
     1 1           1 GROUP             0 ****  ****    0  
@<TRIPOS>MOLECULE
Molecule Name_00001_00494
    41    41     1     0     0
SMALL
NO_CHARGES
****
Generated from the CSD

@<TRIPOS>ATOM
     1 C5      -4.6820   0.4868  -1.1890   C.ar      1 1      0.0000
     2 C4      -4.8167   0.7266   0.1615   C.ar      1 1      0.0000
     3 C3      -3.7422   0.5318   1.0131   C.ar      1 1      0.0000
     4 C8      -2.5197   0.0957   0.5258   C.ar      1 1      0.0000
     5 C7      -2.3989  -0.1427  -0.8346   C.ar      1 1      0.0000
     6 C6      -3.4729   0.0518  -1.6871   C.ar      1 1      0.0000
     7 H4      -5.7668   1.0688   0.5583   H         1 1      0.0000
     8 C9      -1.3495  -0.1196   1.4549   C.3       1 1      0.0000
     9 H7      -1.4513  -0.4860  -1.2363   H         1 1      0.0000
    10 H6      -3.3621  -0.1387  -2.7494   H         1 1      0.0000
    11 C10     -0.0913  -0.5997   0.7341   C.3       1 1      0.0000
    12 H9A     -1.1274   0.8222   1.9718   H         1 1      0.0000
    13 C11      1.1193  -0.8329   1.6235   C.3       1 1      0.0000
    14 C12      2.3076  -1.3738   0.8360   C.3       1 1      0.0000
    15 H12A     2.0461  -2.3552   0.4215   H         1 1      0.0000
    16 C13      2.7270  -0.4678  -0.2815   C.2       1 1      0.0000
    17 C14      3.9989   0.3059  -0.1046   C.3       1 1      0.0000
    18 H14B     4.4082   0.5417  -1.0947   H         1 1      0.0000
    19 H14A     4.7331  -0.3205   0.4165   H         1 1      0.0000
    20 N        2.0070  -0.3756  -1.3817   N.pl3     1 1      0.0000
    21 HN       1.2078  -1.0050  -1.4557   H         1 1      0.0000
    22 C        2.3106   0.4309  -2.5549   C.3       1 1      0.0000
    23 H1A      1.6833   0.1407  -3.3952   H         1 1      0.0000
    24 H1C      2.1387   1.4859  -2.3523   H         1 1      0.0000
    25 H1B      3.3505   0.3081  -2.8500   H         1 1      0.0000
    26 H10A    -0.3264  -1.5385   0.2177   H         1 1      0.0000
    27 H10B     0.1765   0.1436  -0.0269   H         1 1      0.0000
    28 H9B     -1.6298  -0.8594   2.2149   H         1 1      0.0000
    29 H5      -5.5236   0.6395  -1.8565   H         1 1      0.0000
    30 H3      -3.8585   0.7228   2.0748   H         1 1      0.0000
    31 H12B     3.1548  -1.5148   1.5185   H         1 1      0.0000
    32 C15      3.8163   1.5989   0.6685   C.3       1 1      0.0000
    33 H15A     3.4515   1.3668   1.6767   H         1 1      0.0000
    34 H15C     3.0549   2.2117   0.1703   H         1 1      0.0000
    35 OH       1.4894   0.4038   2.2395   O.3       1 1      0.0000
    36 OH1      0.7304   0.7479   2.7719   H         1 1      0.0000
    37 H22      0.8518  -1.5579   2.4077   H         1 1      0.0000
    38 C16      5.0985   2.3914   0.7759   C.3       1 1      0.0000
    39 H16C     5.4728   2.6550  -0.2111   H         1 1      0.0000
    40 H16A     4.9377   3.3113   1.3342   H         1 1      0.0000
    41 H16B     5.8667   1.8148   1.2868   H         1 1      0.0000
@<TRIPOS>BOND
     1     1     2   ar
     2     1     6   ar
     3     1    29    1
     4     2     3   ar
     5     2     7    1
     6     3     4   ar
     7     3    30    1
     8     4     5   ar
     9     4     8    1
    10     5     6   ar
    11     5     9    1
    12     6    10    1
    13     8    11    1
    14     8    12    1
    15     8    28    1
    16    11    13    1
    17    11    26    1
    18    11    27    1
    19    13    14    1
    20    14    15    1
    21    14    16    1
    22    14    31    1
    23    16    17    1
    24    16    20    2
    25    17    18    1
    26    17    19    1
    27    17    32    1
    28    20    21    1
    29    20    22    1
    30    22    23    1
    31    22    24    1
    32    22    25    1
    33    32    33    1
    34    32    34    1
    35    13    35    1
    36    35    36    1
    37    13    37    1
    38    32    38    1
    39    38    39    1
    40    38    40    1
    41    38    41    1
@<TRIPOS>SUBSTRUCTURE
     1 1           1 GROUP             0 ****  ****    0  
@<TRIPOS>MOLECULE
Molecule Name_00001_00495
    41    41     1     0     0
SMALL
NO_CHARGES
****
Generated from the CSD

@<TRIPOS>ATOM
     1 C5      -4.1847   0.7187   1.6368   C.ar      1 1      0.0000
     2 C4      -4.5315  -0.0807   0.5690   C.ar      1 1      0.0000
     3 C3      -3.5792  -0.4369  -0.3714   C.ar      1 1      0.0000
     4 C8      -2.2687   0.0006  -0.2560   C.ar      1 1      0.0000
     5 C7      -1.9344   0.8052   0.8225   C.ar      1 1      0.0000
     6 C6      -2.8859   1.1619   1.7634   C.ar      1 1      0.0000
     7 H4      -5.5528  -0.4318   0.4649   H         1 1      0.0000
     8 C9      -1.2318  -0.3851  -1.2830   C.3       1 1      0.0000
     9 H7      -0.9147   1.1597   0.9307   H         1 1      0.0000
    10 H6      -2.6083   1.7917   2.6021   H         1 1      0.0000
    11 C10      0.1511   0.1911  -0.9853   C.3       1 1      0.0000
    12 H9A     -1.1613  -1.4791  -1.3242   H         1 1      0.0000
    13 C11      1.2351  -0.1667  -1.9892   C.3       1 1      0.0000
    14 C12      2.5717   0.4764  -1.6361   C.3       1 1      0.0000
    15 H12A     2.4702   1.5674  -1.6907   H         1 1      0.0000
    16 C13      3.0569   0.0990  -0.2694   C.2       1 1      0.0000
    17 C14      3.1108   1.1796   0.7684   C.3       1 1      0.0000
    18 H14B     3.4589   2.1058   0.2947   H         1 1      0.0000
    19 H14A     3.8434   0.9055   1.5374   H         1 1      0.0000
    20 N        3.4036  -1.1428   0.0044   N.pl3     1 1      0.0000
    21 HN       3.2489  -1.8307  -0.7326   H         1 1      0.0000
    22 C        3.8554  -1.6566   1.2893   C.3       1 1      0.0000
    23 H1A      3.5075  -2.6763   1.4408   H         1 1      0.0000
    24 H1C      4.9421  -1.6580   1.3431   H         1 1      0.0000
    25 H1B      3.4770  -1.0445   2.1051   H         1 1      0.0000
    26 H10A     0.0676   1.2840  -0.9421   H         1 1      0.0000
    27 H10B     0.4668  -0.1605   0.0047   H         1 1      0.0000
    28 H9B     -1.5599  -0.0345  -2.2693   H         1 1      0.0000
    29 H5      -4.9304   0.9977   2.3739   H         1 1      0.0000
    30 H3      -3.8623  -1.0661  -1.2087   H         1 1      0.0000
    31 H12B     3.3215   0.1736  -2.3774   H         1 1      0.0000
    32 C15      1.7730   1.4448   1.4339   C.3       1 1      0.0000
    33 H15A     1.3950   0.5104   1.8667   H         1 1      0.0000
    34 H15C     1.0535   1.7771   0.6755   H         1 1      0.0000
    35 OH       1.3922  -1.5880  -2.0179   O.3       1 1      0.0000
    36 OH1      0.5341  -2.0102  -2.2700   H         1 1      0.0000
    37 H22      0.9258   0.1799  -2.9874   H         1 1      0.0000
    38 C16      1.8677   2.4912   2.5200   C.3       1 1      0.0000
    39 H16C     2.2202   3.4372   2.1145   H         1 1      0.0000
    40 H16A     0.8956   2.6602   2.9786   H         1 1      0.0000
    41 H16B     2.5597   2.1773   3.2987   H         1 1      0.0000
@<TRIPOS>BOND
     1     1     2   ar
     2     1     6   ar
     3     1    29    1
     4     2     3   ar
     5     2     7    1
     6     3     4   ar
     7     3    30    1
     8     4     5   ar
     9     4     8    1
    10     5     6   ar
    11     5     9    1
    12     6    10    1
    13     8    11    1
    14     8    12    1
    15     8    28    1
    16    11    13    1
    17    11    26    1
    18    11    27    1
    19    13    14    1
    20    14    15    1
    21    14    16    1
    22    14    31    1
    23    16    17    1
    24    16    20    2
    25    17    18    1
    26    17    19    1
    27    17    32    1
    28    20    21    1
    29    20    22    1
    30    22    23    1
    31    22    24    1
    32    22    25    1
    33    32    33    1
    34    32    34    1
    35    13    35    1
    36    35    36    1
    37    13    37    1
    38    32    38    1
    39    38    39    1
    40    38    40    1
    41    38    41    1
@<TRIPOS>SUBSTRUCTURE
     1 1           1 GROUP             0 ****  ****    0  
@<TRIPOS>MOLECULE
Molecule Name_00001_00496
    41    41     1     0     0
SMALL
NO_CHARGES
****
Generated from the CSD

@<TRIPOS>ATOM
     1 C5      -4.6023   0.5861   1.4296   C.ar      1 1      0.0000
     2 C4      -3.4364  -0.0086   1.8612   C.ar      1 1      0.0000
     3 C3      -2.4270  -0.2972   0.9579   C.ar      1 1      0.0000
     4 C8      -2.5699   0.0056  -0.3874   C.ar      1 1      0.0000
     5 C7      -3.7486   0.6025  -0.8077   C.ar      1 1      0.0000
     6 C6      -4.7585   0.8915   0.0948   C.ar      1 1      0.0000
     7 H4      -3.3090  -0.2513   2.9110   H         1 1      0.0000
     8 C9      -1.4708  -0.3121  -1.3722   C.3       1 1      0.0000
     9 H7      -3.8813   0.8463  -1.8566   H         1 1      0.0000
    10 H6      -5.6748   1.3594  -0.2498   H         1 1      0.0000
    11 C10     -0.0721  -0.1880  -0.7710   C.3       1 1      0.0000
    12 H9A     -1.6102  -1.3349  -1.7436   H         1 1      0.0000
    13 C11      1.0747  -0.4802  -1.7252   C.3       1 1      0.0000
    14 C12      2.3091   0.3549  -1.4032   C.3       1 1      0.0000
    15 H12A     2.0383   1.4178  -1.4243   H         1 1      0.0000
    16 C13      2.9009   0.0283  -0.0658   C.2       1 1      0.0000
    17 C14      3.9418   0.9610   0.4766   C.3       1 1      0.0000
    18 H14B     4.5949   1.2767  -0.3464   H         1 1      0.0000
    19 H14A     4.5626   0.4251   1.2049   H         1 1      0.0000
    20 N        2.5013  -1.0317   0.6081   N.pl3     1 1      0.0000
    21 HN       1.7255  -1.5587   0.2076   H         1 1      0.0000
    22 C        2.9593  -1.4483   1.9256   C.3       1 1      0.0000
    23 H1A      2.1481  -1.9038   2.4896   H         1 1      0.0000
    24 H1C      3.7637  -2.1760   1.8415   H         1 1      0.0000
    25 H1B      3.3307  -0.5975   2.4928   H         1 1      0.0000
    26 H10A     0.0494   0.8325  -0.3873   H         1 1      0.0000
    27 H10B     0.0015  -0.8770   0.0795   H         1 1      0.0000
    28 H9B     -1.5527   0.3682  -2.2289   H         1 1      0.0000
    29 H5      -5.3932   0.8125   2.1370   H         1 1      0.0000
    30 H3      -1.5131  -0.7660   1.3075   H         1 1      0.0000
    31 H12B     3.0664   0.1881  -2.1792   H         1 1      0.0000
    32 C15      3.3596   2.1961   1.1387   C.3       1 1      0.0000
    33 H15A     2.7034   1.8875   1.9619   H         1 1      0.0000
    34 H15C     2.7474   2.7407   0.4093   H         1 1      0.0000
    35 OH       1.4116  -1.8675  -1.6370   O.3       1 1      0.0000
    36 OH1      0.6211  -2.4148  -1.8681   H         1 1      0.0000
    37 H22      0.7503  -0.2548  -2.7529   H         1 1      0.0000
    38 C16      4.4285   3.1191   1.6765   C.3       1 1      0.0000
    39 H16C     5.0827   3.4592   0.8764   H         1 1      0.0000
    40 H16A     3.9826   3.9941   2.1448   H         1 1      0.0000
    41 H16B     5.0387   2.6106   2.4201   H         1 1      0.0000
@<TRIPOS>BOND
     1     1     2   ar
     2     1     6   ar
     3     1    29    1
     4     2     3   ar
     5     2     7    1
     6     3     4   ar
     7     3    30    1
     8     4     5   ar
     9     4     8    1
    10     5     6   ar
    11     5     9    1
    12     6    10    1
    13     8    11    1
    14     8    12    1
    15     8    28    1
    16    11    13    1
    17    11    26    1
    18    11    27    1
    19    13    14    1
    20    14    15    1
    21    14    16    1
    22    14    31    1
    23    16    17    1
    24    16    20    2
    25    17    18    1
    26    17    19    1
    27    17    32    1
    28    20    21    1
    29    20    22    1
    30    22    23    1
    31    22    24    1
    32    22    25    1
    33    32    33    1
    34    32    34    1
    35    13    35    1
    36    35    36    1
    37    13    37    1
    38    32    38    1
    39    38    39    1
    40    38    40    1
    41    38    41    1
@<TRIPOS>SUBSTRUCTURE
     1 1           1 GROUP             0 ****  ****    0  
@<TRIPOS>MOLECULE
Molecule Name_00001_00497
    41    41     1     0     0
SMALL
NO_CHARGES
****
Generated from the CSD

@<TRIPOS>ATOM
     1 C5      -4.9556   0.4153   1.1928   C.ar      1 1      0.0000
     2 C4      -3.7801  -0.0567   1.7357   C.ar      1 1      0.0000
     3 C3      -2.6877  -0.3040   0.9212   C.ar      1 1      0.0000
     4 C8      -2.7561  -0.0818  -0.4456   C.ar      1 1      0.0000
     5 C7      -3.9452   0.3920  -0.9782   C.ar      1 1      0.0000
     6 C6      -5.0382   0.6395  -0.1645   C.ar      1 1      0.0000
     7 H4      -3.7104  -0.2351   2.8037   H         1 1      0.0000
     8 C9      -1.5661  -0.3545  -1.3335   C.3       1 1      0.0000
     9 H7      -4.0204   0.5710  -2.0456   H         1 1      0.0000
    10 H6      -5.9616   1.0107  -0.5966   H         1 1      0.0000
    11 C10     -0.2295  -0.0832  -0.6458   C.3       1 1      0.0000
    12 H9A     -1.5953  -1.4026  -1.6559   H         1 1      0.0000
    13 C11      1.0036  -0.3249  -1.5014   C.3       1 1      0.0000
    14 C12      2.1399   0.6263  -1.1428   C.3       1 1      0.0000
    15 H12A     1.7867   1.6602  -1.2416   H         1 1      0.0000
    16 C13      2.6570   0.4180   0.2482   C.2       1 1      0.0000
    17 C14      3.5772   1.4611   0.8077   C.3       1 1      0.0000
    18 H14B     3.5222   1.4283   1.9028   H         1 1      0.0000
    19 H14A     3.2349   2.4531   0.4887   H         1 1      0.0000
    20 N        2.2962  -0.6369   0.9513   N.pl3     1 1      0.0000
    21 HN       1.5966  -1.2469   0.5286   H         1 1      0.0000
    22 C        2.6890  -0.9471   2.3182   C.3       1 1      0.0000
    23 H1A      2.0641  -1.7372   2.7292   H         1 1      0.0000
    24 H1C      3.7241  -1.2801   2.3555   H         1 1      0.0000
    25 H1B      2.5921  -0.0715   2.9566   H         1 1      0.0000
    26 H10A    -0.2188   0.9618  -0.3122   H         1 1      0.0000
    27 H10B    -0.1628  -0.7202   0.2449   H         1 1      0.0000
    28 H9B     -1.6399   0.2728  -2.2304   H         1 1      0.0000
    29 H5      -5.8116   0.6093   1.8306   H         1 1      0.0000
    30 H3      -1.7669  -0.6760   1.3582   H         1 1      0.0000
    31 H12B     2.9627   0.4853  -1.8545   H         1 1      0.0000
    32 C15      5.0235   1.2790   0.3861   C.3       1 1      0.0000
    33 H15A     5.0856   1.3088  -0.7087   H         1 1      0.0000
    34 H15C     5.3725   0.2921   0.7140   H         1 1      0.0000
    35 OH       1.4438  -1.6727  -1.3130   O.3       1 1      0.0000
    36 OH1      0.7188  -2.2956  -1.5669   H         1 1      0.0000
    37 H22      0.7378  -0.1793  -2.5599   H         1 1      0.0000
    38 C16      5.9295   2.3422   0.9628   C.3       1 1      0.0000
    39 H16C     5.9047   2.3216   2.0503   H         1 1      0.0000
    40 H16A     6.9581   2.1867   0.6442   H         1 1      0.0000
    41 H16B     5.6193   3.3323   0.6354   H         1 1      0.0000
@<TRIPOS>BOND
     1     1     2   ar
     2     1     6   ar
     3     1    29    1
     4     2     3   ar
     5     2     7    1
     6     3     4   ar
     7     3    30    1
     8     4     5   ar
     9     4     8    1
    10     5     6   ar
    11     5     9    1
    12     6    10    1
    13     8    11    1
    14     8    12    1
    15     8    28    1
    16    11    13    1
    17    11    26    1
    18    11    27    1
    19    13    14    1
    20    14    15    1
    21    14    16    1
    22    14    31    1
    23    16    17    1
    24    16    20    2
    25    17    18    1
    26    17    19    1
    27    17    32    1
    28    20    21    1
    29    20    22    1
    30    22    23    1
    31    22    24    1
    32    22    25    1
    33    32    33    1
    34    32    34    1
    35    13    35    1
    36    35    36    1
    37    13    37    1
    38    32    38    1
    39    38    39    1
    40    38    40    1
    41    38    41    1
@<TRIPOS>SUBSTRUCTURE
     1 1           1 GROUP             0 ****  ****    0  
@<TRIPOS>MOLECULE
Molecule Name_00001_00498
    41    41     1     0     0
SMALL
NO_CHARGES
****
Generated from the CSD

@<TRIPOS>ATOM
     1 C5      -5.6587   0.6708  -0.4796   C.ar      1 1      0.0000
     2 C4      -5.0787  -0.3081  -1.2573   C.ar      1 1      0.0000
     3 C3      -3.8199  -0.7920  -0.9422   C.ar      1 1      0.0000
     4 C8      -3.1256  -0.3043   0.1543   C.ar      1 1      0.0000
     5 C7      -3.7206   0.6810   0.9270   C.ar      1 1      0.0000
     6 C6      -4.9794   1.1656   0.6127   C.ar      1 1      0.0000
     7 H4      -5.6095  -0.7005  -2.1184   H         1 1      0.0000
     8 C9      -1.7521  -0.8297   0.4955   C.3       1 1      0.0000
     9 H7      -3.1936   1.0775   1.7886   H         1 1      0.0000
    10 H6      -5.4317   1.9365   1.2278   H         1 1      0.0000
    11 C10     -0.6633   0.2382   0.4122   C.3       1 1      0.0000
    12 H9A     -1.7710  -1.2416   1.5121   H         1 1      0.0000
    13 C11      0.7632  -0.2869   0.3919   C.3       1 1      0.0000
    14 C12      1.7832   0.8417   0.2888   C.3       1 1      0.0000
    15 H12A     1.8640   1.3418   1.2618   H         1 1      0.0000
    16 C13      3.1407   0.3639  -0.1288   C.2       1 1      0.0000
    17 C14      4.2069   1.3986  -0.3295   C.3       1 1      0.0000
    18 H14B     3.7422   2.3920  -0.3068   H         1 1      0.0000
    19 H14A     4.6565   1.2660  -1.3211   H         1 1      0.0000
    20 N        3.3824  -0.9214  -0.2933   N.pl3     1 1      0.0000
    21 HN       2.6272  -1.5609  -0.0469   H         1 1      0.0000
    22 C        4.6545  -1.5273  -0.6590   C.3       1 1      0.0000
    23 H1A      5.1729  -1.8978   0.2229   H         1 1      0.0000
    24 H1C      4.5019  -2.3633  -1.3384   H         1 1      0.0000
    25 H1B      5.2998  -0.8037  -1.1526   H         1 1      0.0000
    26 H10A    -0.8272   0.8279  -0.4983   H         1 1      0.0000
    27 H10B    -0.7720   0.9112   1.2716   H         1 1      0.0000
    28 H9B     -1.5031  -1.6479  -0.1915   H         1 1      0.0000
    29 H5      -6.6450   1.0499  -0.7260   H         1 1      0.0000
    30 H3      -3.3716  -1.5622  -1.5610   H         1 1      0.0000
    31 H12B     1.4258   1.5817  -0.4380   H         1 1      0.0000
    32 C15      5.3022   1.3481   0.7195   C.3       1 1      0.0000
    33 H15A     5.7707   0.3563   0.7031   H         1 1      0.0000
    34 H15C     4.8569   1.4911   1.7119   H         1 1      0.0000
    35 OH       1.0036  -1.0275   1.5917   O.3       1 1      0.0000
    36 OH1      0.3692  -1.7842   1.6456   H         1 1      0.0000
    37 H22      0.8847  -0.9569  -0.4733   H         1 1      0.0000
    38 C16      6.3629   2.4008   0.4955   C.3       1 1      0.0000
    39 H16C     5.9295   3.3982   0.5284   H         1 1      0.0000
    40 H16A     7.1337   2.3408   1.2610   H         1 1      0.0000
    41 H16B     6.8378   2.2695  -0.4746   H         1 1      0.0000
@<TRIPOS>BOND
     1     1     2   ar
     2     1     6   ar
     3     1    29    1
     4     2     3   ar
     5     2     7    1
     6     3     4   ar
     7     3    30    1
     8     4     5   ar
     9     4     8    1
    10     5     6   ar
    11     5     9    1
    12     6    10    1
    13     8    11    1
    14     8    12    1
    15     8    28    1
    16    11    13    1
    17    11    26    1
    18    11    27    1
    19    13    14    1
    20    14    15    1
    21    14    16    1
    22    14    31    1
    23    16    17    1
    24    16    20    2
    25    17    18    1
    26    17    19    1
    27    17    32    1
    28    20    21    1
    29    20    22    1
    30    22    23    1
    31    22    24    1
    32    22    25    1
    33    32    33    1
    34    32    34    1
    35    13    35    1
    36    35    36    1
    37    13    37    1
    38    32    38    1
    39    38    39    1
    40    38    40    1
    41    38    41    1
@<TRIPOS>SUBSTRUCTURE
     1 1           1 GROUP             0 ****  ****    0  
@<TRIPOS>MOLECULE
Molecule Name_00001_00499
    41    41     1     0     0
SMALL
NO_CHARGES
****
Generated from the CSD

@<TRIPOS>ATOM
     1 C5      -3.5987   0.3316   1.8804   C.ar      1 1      0.0000
     2 C4      -2.2297   0.1758   1.8489   C.ar      1 1      0.0000
     3 C3      -1.5852  -0.0712   0.6482   C.ar      1 1      0.0000
     4 C8      -2.3006  -0.1646  -0.5357   C.ar      1 1      0.0000
     5 C7      -3.6772  -0.0070  -0.4889   C.ar      1 1      0.0000
     6 C6      -4.3226   0.2400   0.7113   C.ar      1 1      0.0000
     7 H4      -1.6555   0.2467   2.7668   H         1 1      0.0000
     8 C9      -1.5981  -0.4371  -1.8438   C.3       1 1      0.0000
     9 H7      -4.2560  -0.0780  -1.4039   H         1 1      0.0000
    10 H6      -5.4006   0.3616   0.7311   H         1 1      0.0000
    11 C10     -0.0807  -0.5375  -1.7006   C.3       1 1      0.0000
    12 H9A     -1.9797  -1.3757  -2.2642   H         1 1      0.0000
    13 C11      0.6367   0.7769  -1.4380   C.3       1 1      0.0000
    14 C12      2.1413   0.5829  -1.2855   C.3       1 1      0.0000
    15 H12A     2.6314   1.5643  -1.2894   H         1 1      0.0000
    16 C13      2.5107  -0.1424  -0.0274   C.2       1 1      0.0000
    17 C14      2.3665   0.6001   1.2671   C.3       1 1      0.0000
    18 H14B     2.2401  -0.1275   2.0782   H         1 1      0.0000
    19 H14A     1.4599   1.2163   1.2308   H         1 1      0.0000
    20 N        2.9285  -1.3919  -0.0668   N.pl3     1 1      0.0000
    21 HN       2.9089  -1.8490  -0.9783   H         1 1      0.0000
    22 C        3.2847  -2.2263   1.0717   C.3       1 1      0.0000
    23 H1A      3.2882  -3.2779   0.7929   H         1 1      0.0000
    24 H1C      4.2754  -1.9706   1.4417   H         1 1      0.0000
    25 H1B      2.5749  -2.0936   1.8854   H         1 1      0.0000
    26 H10A     0.1434  -1.2241  -0.8749   H         1 1      0.0000
    27 H10B     0.3257  -0.9755  -2.6206   H         1 1      0.0000
    28 H9B     -1.8375   0.3669  -2.5507   H         1 1      0.0000
    29 H5      -4.1039   0.5253   2.8209   H         1 1      0.0000
    30 H3      -0.5072  -0.1929   0.6339   H         1 1      0.0000
    31 H12B     2.5184   0.0182  -2.1471   H         1 1      0.0000
    32 C15      3.5541   1.4883   1.5890   C.3       1 1      0.0000
    33 H15A     3.6876   2.2176   0.7804   H         1 1      0.0000
    34 H15C     4.4610   0.8730   1.6374   H         1 1      0.0000
    35 OH       0.3873   1.6690  -2.5278   O.3       1 1      0.0000
    36 OH1     -0.5631   1.9422  -2.5204   H         1 1      0.0000
    37 H22      0.2393   1.2218  -0.5125   H         1 1      0.0000
    38 C16      3.3841   2.2250   2.8975   C.3       1 1      0.0000
    39 H16C     3.2711   1.5247   3.7225   H         1 1      0.0000
    40 H16A     4.2489   2.8528   3.1018   H         1 1      0.0000
    41 H16B     2.5021   2.8615   2.8700   H         1 1      0.0000
@<TRIPOS>BOND
     1     1     2   ar
     2     1     6   ar
     3     1    29    1
     4     2     3   ar
     5     2     7    1
     6     3     4   ar
     7     3    30    1
     8     4     5   ar
     9     4     8    1
    10     5     6   ar
    11     5     9    1
    12     6    10    1
    13     8    11    1
    14     8    12    1
    15     8    28    1
    16    11    13    1
    17    11    26    1
    18    11    27    1
    19    13    14    1
    20    14    15    1
    21    14    16    1
    22    14    31    1
    23    16    17    1
    24    16    20    2
    25    17    18    1
    26    17    19    1
    27    17    32    1
    28    20    21    1
    29    20    22    1
    30    22    23    1
    31    22    24    1
    32    22    25    1
    33    32    33    1
    34    32    34    1
    35    13    35    1
    36    35    36    1
    37    13    37    1
    38    32    38    1
    39    38    39    1
    40    38    40    1
    41    38    41    1
@<TRIPOS>SUBSTRUCTURE
     1 1           1 GROUP             0 ****  ****    0  
@<TRIPOS>MOLECULE
Molecule Name_00001_00500
    41    41     1     0     0
SMALL
NO_CHARGES
****
Generated from the CSD

@<TRIPOS>ATOM
     1 C5      -3.9979   0.0844  -1.4724   C.ar      1 1      0.0000
     2 C4      -2.6301   0.0200  -1.6281   C.ar      1 1      0.0000
     3 C3      -1.7960   0.2249  -0.5418   C.ar      1 1      0.0000
     4 C8      -2.3183   0.4959   0.7135   C.ar      1 1      0.0000
     5 C7      -3.6960   0.5590   0.8553   C.ar      1 1      0.0000
     6 C6      -4.5310   0.3542  -0.2304   C.ar      1 1      0.0000
     7 H4      -2.2058  -0.1917  -2.6040   H         1 1      0.0000
     8 C9      -1.4086   0.7225   1.8968   C.3       1 1      0.0000
     9 H7      -4.1253   0.7714   1.8288   H         1 1      0.0000
    10 H6      -5.6072   0.4063  -0.1030   H         1 1      0.0000
    11 C10      0.0714   0.5601   1.5557   C.3       1 1      0.0000
    12 H9A     -1.5762   1.7343   2.2861   H         1 1      0.0000
    13 C11      0.5300  -0.8685   1.3112   C.3       1 1      0.0000
    14 C12      2.0339  -0.9501   1.0735   C.3       1 1      0.0000
    15 H12A     2.3419  -2.0029   1.0840   H         1 1      0.0000
    16 C13      2.4528  -0.3317  -0.2256   C.2       1 1      0.0000
    17 C14      2.7427   1.1392  -0.2300   C.3       1 1      0.0000
    18 H14B     2.0327   1.6401   0.4397   H         1 1      0.0000
    19 H14A     2.5814   1.5360  -1.2398   H         1 1      0.0000
    20 N        2.5760  -1.0656  -1.3135   N.pl3     1 1      0.0000
    21 HN       2.4486  -2.0712  -1.2000   H         1 1      0.0000
    22 C        3.0064  -0.6087  -2.6269   C.3       1 1      0.0000
    23 H1A      3.5846  -1.3791  -3.1328   H         1 1      0.0000
    24 H1C      2.1487  -0.3648  -3.2502   H         1 1      0.0000
    25 H1B      3.6273   0.2806  -2.5426   H         1 1      0.0000
    26 H10A     0.2849   1.1501   0.6558   H         1 1      0.0000
    27 H10B     0.6642   0.9777   2.3789   H         1 1      0.0000
    28 H9B     -1.6722   0.0118   2.6898   H         1 1      0.0000
    29 H5      -4.6518  -0.0764  -2.3232   H         1 1      0.0000
    30 H3      -0.7204   0.1727  -0.6748   H         1 1      0.0000
    31 H12B     2.5541  -0.4421   1.8950   H         1 1      0.0000
    32 C15      4.1539   1.4777   0.2134   C.3       1 1      0.0000
    33 H15A     4.8695   0.9782  -0.4513   H         1 1      0.0000
    34 H15C     4.3146   1.0922   1.2278   H         1 1      0.0000
    35 OH       0.1915  -1.6670   2.4486   O.3       1 1      0.0000
    36 OH1     -0.7916  -1.7546   2.5100   H         1 1      0.0000
    37 H22      0.0076  -1.2648   0.4268   H         1 1      0.0000
    38 C16      4.4204   2.9652   0.2001   C.3       1 1      0.0000
    39 H16C     3.7378   3.4853   0.8690   H         1 1      0.0000
    40 H16A     5.4378   3.1776   0.5219   H         1 1      0.0000
    41 H16B     4.2896   3.3715  -0.8006   H         1 1      0.0000
@<TRIPOS>BOND
     1     1     2   ar
     2     1     6   ar
     3     1    29    1
     4     2     3   ar
     5     2     7    1
     6     3     4   ar
     7     3    30    1
     8     4     5   ar
     9     4     8    1
    10     5     6   ar
    11     5     9    1
    12     6    10    1
    13     8    11    1
    14     8    12    1
    15     8    28    1
    16    11    13    1
    17    11    26    1
    18    11    27    1
    19    13    14    1
    20    14    15    1
    21    14    16    1
    22    14    31    1
    23    16    17    1
    24    16    20    2
    25    17    18    1
    26    17    19    1
    27    17    32    1
    28    20    21    1
    29    20    22    1
    30    22    23    1
    31    22    24    1
    32    22    25    1
    33    32    33    1
    34    32    34    1
    35    13    35    1
    36    35    36    1
    37    13    37    1
    38    32    38    1
    39    38    39    1
    40    38    40    1
    41    38    41    1
@<TRIPOS>SUBSTRUCTURE
     1 1           1 GROUP             0 ****  ****    0  
