@<TRIPOS>MOLECULE
Molecule Name_00001
    41    41     1     0     0
SMALL
NO_CHARGES
****
Generated from the CSD

@<TRIPOS>ATOM
     1 C5      -5.6951   0.6288  -0.1014   C.ar      1 1      0.0000
     2 C4      -5.0766  -0.0325  -1.1685   C.ar      1 1      0.0000
     3 C3      -3.7681  -0.5087  -1.0335   C.ar      1 1      0.0000
     4 C8      -3.0646  -0.3291   0.1677   C.ar      1 1      0.0000
     5 C7      -3.6893   0.3422   1.2298   C.ar      1 1      0.0000
     6 C6      -4.9977   0.8198   1.0965   C.ar      1 1      0.0000
     7 H4      -5.6089  -0.1699  -2.1042   H         1 1      0.0000
     8 C9      -1.6706  -0.9106   0.3367   C.3       1 1      0.0000
     9 H7      -3.1477   0.5054   2.1589   H         1 1      0.0000
    10 H6      -5.4686   1.3447   1.9214   H         1 1      0.0000
    11 C10     -0.6132   0.0870  -0.1958   C.3       1 1      0.0000
    12 H9A     -1.4692  -1.1237   1.3924   H         1 1      0.0000
    13 C11      0.8021  -0.4024  -0.0706   C.3       1 1      0.0000
    14 C12      1.9038   0.5528  -0.5598   C.3       1 1      0.0000
    15 H12A     1.7459   1.5429  -0.1093   H         1 1      0.0000
    16 C13      3.3481   0.1519  -0.3478   C.2       1 1      0.0000
    17 C14      4.4103   1.1073  -0.8081   C.3       1 1      0.0000
    18 H14B     4.0994   1.5592  -1.7566   H         1 1      0.0000
    19 H14A     5.3583   0.5880  -0.9750   H         1 1      0.0000
    20 N        3.6259  -0.9759   0.2371   N.pl3     1 1      0.0000
    21 HN       2.7832  -1.5209   0.5475   H         1 1      0.0000
    22 C        4.9849  -1.5348   0.4993   C.3       1 1      0.0000
    23 H1A      4.8568  -2.4343   1.1030   H         1 1      0.0000
    24 H1C      5.4681  -1.7977  -0.4472   H         1 1      0.0000
    25 H1B      5.5967  -0.8119   1.0444   H         1 1      0.0000
    26 H10A    -0.8128   0.3192  -1.2544   H         1 1      0.0000
    27 H10B    -0.7013   1.0474   0.3368   H         1 1      0.0000
    28 H9B     -1.5817  -1.8583  -0.2057   H         1 1      0.0000
    29 H5      -6.7086   1.0018  -0.2063   H         1 1      0.0000
    30 H3      -3.2875  -1.0090  -1.8714   H         1 1      0.0000
    31 H12B     1.7586   0.7067  -1.6418   H         1 1      0.0000
    32 C15      4.6187   2.2453   0.2482   C.3       1 1      0.0000
    33 H15A     3.7007   2.8217   0.3990   H         1 1      0.0000
    34 H15C     5.3919   2.9265  -0.1191   H         1 1      0.0000
    35 OH       1.0481  -0.7024   1.2892   O.3       1 1      0.0000
    36 OH1      0.4160  -1.4056   1.5926   H         1 1      0.0000
    37 H22      0.8868  -1.3283  -0.6376   H         1 1      0.0000
    38 C16      5.0642   1.6343   1.5783   C.3       1 1      0.0000
    39 H16C     6.0005   1.0968   1.4354   H         1 1      0.0000
    40 H16A     5.2086   2.4265   2.3114   H         1 1      0.0000
    41 H16B     4.3005   0.9446   1.9348   H         1 1      0.0000
@<TRIPOS>BOND
     1     1     2   ar
     2     1     6   ar
     3     1    29    1
     4     2     3   ar
     5     2     7    1
     6     3     4   ar
     7     3    30    1
     8     4     5   ar
     9     4     8    1
    10     5     6   ar
    11     5     9    1
    12     6    10    1
    13     8    11    1
    14     8    12    1
    15     8    28    1
    16    11    13    1
    17    11    26    1
    18    11    27    1
    19    13    14    1
    20    14    15    1
    21    14    16    1
    22    14    31    1
    23    16    17    1
    24    16    20    2
    25    17    18    1
    26    17    19    1
    27    17    32    1
    28    20    21    1
    29    20    22    1
    30    22    23    1
    31    22    24    1
    32    22    25    1
    33    32    33    1
    34    32    34    1
    35    13    35    1
    36    35    36    1
    37    13    37    1
    38    32    38    1
    39    38    39    1
    40    38    40    1
    41    38    41    1
@<TRIPOS>SUBSTRUCTURE
     1 1           1 GROUP             0 ****  ****    0  
