@<TRIPOS>MOLECULE
Molecule Name
    42    42     1     0     0
SMALL
NO_CHARGES
****
Generated from the CSD

@<TRIPOS>ATOM
     1 C1       3.5612  -0.3870  -0.1424   C.ar      1 1      0.0000
     2 C2       2.7649   0.3818  -0.9914   C.ar      1 1      0.0000
     3 C3       1.3891   0.4071  -0.7808   C.ar      1 1      0.0000
     4 C4       0.8030  -0.3315   0.2612   C.ar      1 1      0.0000
     5 C5       1.6318  -1.0906   1.1013   C.ar      1 1      0.0000
     6 C6       3.0117  -1.1222   0.9063   C.ar      1 1      0.0000
     7 H7       3.2233   0.9460  -1.7941   H         1 1      0.0000
     8 H8       0.7742   1.0229  -1.4257   H         1 1      0.0000
     9 H9       1.1828  -1.6583   1.9059   H         1 1      0.0000
    10 H10      3.6577  -1.7049   1.5514   H         1 1      0.0000
    11 N11      5.0151  -0.4198  -0.3602   N.pl3     1 1      0.0000
    12 O12      5.6976  -1.1076   0.4020   O.2       1 1      0.0000
    13 O13      5.4729   0.2424  -1.2951   O.2       1 1      0.0000
    14 CL3     -0.7171  -0.3341   0.5053   C.3       1 1      0.0000
    15 CL1     -1.4664  -0.6670  -0.8214   C.3       1 1      0.0000
    16 H16     -1.2607   0.1052  -1.5647   H         1 1      0.0000
    17 H17     -1.0442  -1.6053  -1.1952   H         1 1      0.0000
    18 CL      -3.0020  -0.8163  -0.7327   C.3       1 1      0.0000
    19 CL2     -3.5857  -1.1085  -2.1247   C.3       1 1      0.0000
    20 H20     -4.6751  -1.2292  -2.0626   H         1 1      0.0000
    21 H21     -3.3651  -0.2793  -2.8027   H         1 1      0.0000
    22 H22     -3.1730  -2.0234  -2.5583   H         1 1      0.0000
    23 OL2     -0.9828  -1.3078   1.4831   O.3       1 1      0.0000
    24 H24     -1.9481  -1.4950   1.4373   H         1 1      0.0000
    25 N25     -3.3683  -1.8350   0.2884   N.3       1 1      0.0000
    26 H26     -4.3166  -1.6444   0.6031   H         1 1      0.0000
    27 C27     -3.2263  -3.2523  -0.0712   C.3       1 1      0.0000
    28 H28     -2.1801  -3.4715  -0.3001   H         1 1      0.0000
    29 H29     -3.5026  -3.8564   0.7972   H         1 1      0.0000
    30 H30     -3.8450  -3.5687  -0.9230   H         1 1      0.0000
    31 OL1     -3.5030   0.4304  -0.2607   O.3       1 1      0.0000
    32 H32     -4.4508   0.4906  -0.4419   H         1 1      0.0000
    33 CL4     -1.1241   1.0690   1.0619   C.2       1 1      0.0000
    34 C34     -1.3280   3.3796   0.5455   C.3       1 1      0.0000
    35 H35     -2.3808   3.3671   0.8426   H         1 1      0.0000
    36 H36     -0.7329   3.6544   1.4216   H         1 1      0.0000
    37 OL3     -1.5106   1.2655   2.1892   O.2       1 1      0.0000
    38 OL4     -0.9573   2.0381   0.1380   O.3       1 1      0.0000
    39 C39     -1.0757   4.3056  -0.6290   C.3       1 1      0.0000
    40 H40     -1.6743   4.0124  -1.4970   H         1 1      0.0000
    41 H41     -1.3494   5.3297  -0.3542   H         1 1      0.0000
    42 H42     -0.0197   4.3008  -0.9164   H         1 1      0.0000
@<TRIPOS>BOND
     1     1     2   ar
     2     1     6   ar
     3     1    11    1
     4     2     3   ar
     5     2     7    1
     6     3     4   ar
     7     3     8    1
     8     4     5   ar
     9     4    14    1
    10     5     6   ar
    11     5     9    1
    12     6    10    1
    13    11    12    2
    14    11    13    2
    15    14    15    1
    16    14    23    1
    17    14    33    1
    18    15    16    1
    19    15    17    1
    20    15    18    1
    21    18    19    1
    22    18    25    1
    23    18    31    1
    24    19    20    1
    25    19    21    1
    26    19    22    1
    27    23    24    1
    28    25    26    1
    29    25    27    1
    30    27    28    1
    31    27    29    1
    32    27    30    1
    33    31    32    1
    34    33    37    2
    35    33    38    1
    36    34    35    1
    37    34    36    1
    38    34    38    1
    39    34    39    1
    40    39    40    1
    41    39    41    1
    42    39    42    1
@<TRIPOS>SUBSTRUCTURE
     1 RES1        1 GROUP             0 ****  ****    0  
