@<TRIPOS>MOLECULE
Molecule Name_00001
    42    42     1     0     0
SMALL
NO_CHARGES
****
Generated from the CSD

@<TRIPOS>ATOM
     1 C1       3.5696  -0.3559  -0.2190   C.ar      1 1      0.0000
     2 C2       2.9996  -0.7854   0.9589   C.ar      1 1      0.0000
     3 C3       1.6232  -0.7344   1.0847   C.ar      1 1      0.0000
     4 C4       0.8178  -0.2603   0.0552   C.ar      1 1      0.0000
     5 C5       1.4350   0.1598  -1.1179   C.ar      1 1      0.0000
     6 C6       2.8095   0.1174  -1.2654   C.ar      1 1      0.0000
     7 H7       3.6170  -1.1558   1.7705   H         1 1      0.0000
     8 H8       1.1673  -1.0735   2.0085   H         1 1      0.0000
     9 H9       0.8291   0.5291  -1.9385   H         1 1      0.0000
    10 H10      3.2788   0.4498  -2.1854   H         1 1      0.0000
    11 N11      5.0295  -0.4044  -0.3635   N.pl3     1 1      0.0000
    12 O12      5.5197  -0.0201  -1.4139   O.2       1 1      0.0000
    13 O13      5.6895  -0.8268   0.5731   O.2       1 1      0.0000
    14 CL3     -0.7027  -0.1967   0.2058   C.3       1 1      0.0000
    15 CL1     -1.3970  -1.1434  -0.8141   C.3       1 1      0.0000
    16 H16     -1.1678  -0.7952  -1.8285   H         1 1      0.0000
    17 H17     -0.9547  -2.1423  -0.7137   H         1 1      0.0000
    18 CL      -2.9239  -1.2811  -0.6804   C.3       1 1      0.0000
    19 CL2     -3.4494  -2.1008  -1.8446   C.3       1 1      0.0000
    20 H20     -4.5323  -2.1929  -1.7938   H         1 1      0.0000
    21 H21     -3.1931  -1.6327  -2.7927   H         1 1      0.0000
    22 H22     -3.0233  -3.1019  -1.8349   H         1 1      0.0000
    23 OL2     -1.0234  -0.5650   1.5415   O.3       1 1      0.0000
    24 H24     -1.7489   0.0170   1.8777   H         1 1      0.0000
    25 N25     -3.2616  -1.9567   0.5449   N.3       1 1      0.0000
    26 H26     -2.8831  -1.3971   1.3091   H         1 1      0.0000
    27 C27     -4.6845  -2.1578   0.8240   C.3       1 1      0.0000
    28 H28     -5.1483  -2.7619   0.0470   H         1 1      0.0000
    29 H29     -4.8228  -2.6658   1.7761   H         1 1      0.0000
    30 H30     -5.2071  -1.2046   0.8694   H         1 1      0.0000
    31 OL1     -3.5237   0.0061  -0.7649   O.3       1 1      0.0000
    32 H32     -4.5074  -0.0862  -0.7205   H         1 1      0.0000
    33 CL4     -1.0724   1.2802  -0.0373   C.2       1 1      0.0000
    34 C34     -1.4049   3.3941   0.9860   C.3       1 1      0.0000
    35 H35     -0.6990   3.9032   0.3182   H         1 1      0.0000
    36 H36     -2.4102   3.5151   0.5639   H         1 1      0.0000
    37 OL3     -1.3298   1.7301  -1.1198   O.2       1 1      0.0000
    38 OL4     -1.0689   1.9791   1.0913   O.3       1 1      0.0000
    39 C39     -1.3444   3.9853   2.3415   C.3       1 1      0.0000
    40 H40     -0.3475   3.8795   2.7643   H         1 1      0.0000
    41 H41     -1.5891   5.0450   2.3114   H         1 1      0.0000
    42 H42     -2.0494   3.4935   3.0086   H         1 1      0.0000
@<TRIPOS>BOND
     1     1     2   ar
     2     1     6   ar
     3     1    11    1
     4     2     3   ar
     5     2     7    1
     6     3     4   ar
     7     3     8    1
     8     4     5   ar
     9     4    14    1
    10     5     6   ar
    11     5     9    1
    12     6    10    1
    13    11    12    2
    14    11    13    2
    15    14    15    1
    16    14    23    1
    17    14    33    1
    18    15    16    1
    19    15    17    1
    20    15    18    1
    21    18    19    1
    22    18    25    1
    23    18    31    1
    24    19    20    1
    25    19    21    1
    26    19    22    1
    27    23    24    1
    28    25    26    1
    29    25    27    1
    30    27    28    1
    31    27    29    1
    32    27    30    1
    33    31    32    1
    34    33    37    2
    35    33    38    1
    36    34    35    1
    37    34    36    1
    38    34    38    1
    39    34    39    1
    40    39    40    1
    41    39    41    1
    42    39    42    1
@<TRIPOS>SUBSTRUCTURE
     1 1           1 GROUP             0 ****  ****    0  
@<TRIPOS>MOLECULE
Molecule Name_00002
    42    42     1     0     0
SMALL
NO_CHARGES
****
Generated from the CSD

@<TRIPOS>ATOM
     1 C1       3.4807  -0.4453  -0.2267   C.ar      1 1      0.0000
     2 C2       2.8967  -0.8622   0.9488   C.ar      1 1      0.0000
     3 C3       1.5236  -0.7582   1.0784   C.ar      1 1      0.0000
     4 C4       0.7354  -0.2439   0.0549   C.ar      1 1      0.0000
     5 C5       1.3662   0.1617  -1.1160   C.ar      1 1      0.0000
     6 C6       2.7377   0.0666  -1.2671   C.ar      1 1      0.0000
     7 H7       3.5007  -1.2637   1.7558   H         1 1      0.0000
     8 H8       1.0566  -1.0872   2.0003   H         1 1      0.0000
     9 H9       0.7737   0.5617  -1.9320   H         1 1      0.0000
    10 H10      3.2178   0.3883  -2.1854   H         1 1      0.0000
    11 N11      4.9373  -0.5499  -0.3750   N.pl3     1 1      0.0000
    12 O12      5.4400  -0.1761  -1.4233   O.2       1 1      0.0000
    13 O13      5.5821  -1.0061   0.5563   O.2       1 1      0.0000
    14 CL3     -0.7812  -0.1219   0.2097   C.3       1 1      0.0000
    15 CL1     -1.5142  -1.0317  -0.8166   C.3       1 1      0.0000
    16 H16     -1.2491  -0.7034  -1.8289   H         1 1      0.0000
    17 H17     -1.1334  -2.0543  -0.7045   H         1 1      0.0000
    18 CL      -3.0485  -1.0782  -0.7066   C.3       1 1      0.0000
    19 CL2     -3.5968  -1.9536  -1.8185   C.3       1 1      0.0000
    20 H20     -4.6820  -2.0106  -1.7650   H         1 1      0.0000
    21 H21     -3.3261  -1.5535  -2.7934   H         1 1      0.0000
    22 H22     -3.2003  -2.9641  -1.7449   H         1 1      0.0000
    23 OL2     -1.1133  -0.4888   1.5429   O.3       1 1      0.0000
    24 H24     -2.0868  -0.3813   1.6806   H         1 1      0.0000
    25 N25     -3.4442  -1.6416   0.5575   N.3       1 1      0.0000
    26 H26     -4.4639  -1.6356   0.5815   H         1 1      0.0000
    27 C27     -3.0164  -3.0132   0.8381   C.3       1 1      0.0000
    28 H28     -1.9310  -3.0885   0.8275   H         1 1      0.0000
    29 H29     -3.3689  -3.3347   1.8159   H         1 1      0.0000
    30 H30     -3.4111  -3.7005   0.0927   H         1 1      0.0000
    31 OL1     -3.5759   0.2290  -0.8986   O.3       1 1      0.0000
    32 H32     -4.5633   0.1949  -0.8533   H         1 1      0.0000
    33 CL4     -1.0929   1.3705  -0.0198   C.2       1 1      0.0000
    34 C34     -1.4084   3.4738   1.0303   C.3       1 1      0.0000
    35 H35     -0.6560   3.9729   0.4073   H         1 1      0.0000
    36 H36     -2.3882   3.6349   0.5638   H         1 1      0.0000
    37 OL3     -1.2842   1.8492  -1.1036   O.2       1 1      0.0000
    38 OL4     -1.1218   2.0470   1.1219   O.3       1 1      0.0000
    39 C39     -1.3945   4.0365   2.3992   C.3       1 1      0.0000
    40 H40     -0.4227   3.8908   2.8662   H         1 1      0.0000
    41 H41     -1.6046   5.1038   2.3796   H         1 1      0.0000
    42 H42     -2.1454   3.5546   3.0219   H         1 1      0.0000
@<TRIPOS>BOND
     1     1     2   ar
     2     1     6   ar
     3     1    11    1
     4     2     3   ar
     5     2     7    1
     6     3     4   ar
     7     3     8    1
     8     4     5   ar
     9     4    14    1
    10     5     6   ar
    11     5     9    1
    12     6    10    1
    13    11    12    2
    14    11    13    2
    15    14    15    1
    16    14    23    1
    17    14    33    1
    18    15    16    1
    19    15    17    1
    20    15    18    1
    21    18    19    1
    22    18    25    1
    23    18    31    1
    24    19    20    1
    25    19    21    1
    26    19    22    1
    27    23    24    1
    28    25    26    1
    29    25    27    1
    30    27    28    1
    31    27    29    1
    32    27    30    1
    33    31    32    1
    34    33    37    2
    35    33    38    1
    36    34    35    1
    37    34    36    1
    38    34    38    1
    39    34    39    1
    40    39    40    1
    41    39    41    1
    42    39    42    1
@<TRIPOS>SUBSTRUCTURE
     1 1           1 GROUP             0 ****  ****    0  
@<TRIPOS>MOLECULE
Molecule Name_00003
    42    42     1     0     0
SMALL
NO_CHARGES
****
Generated from the CSD

@<TRIPOS>ATOM
     1 C1       2.8630  -0.7134  -0.2300   C.ar      1 1      0.0000
     2 C2       2.2577  -0.8784   0.9959   C.ar      1 1      0.0000
     3 C3       0.9486  -0.4591   1.1489   C.ar      1 1      0.0000
     4 C4       0.2453   0.1206   0.0988   C.ar      1 1      0.0000
     5 C5       0.8940   0.2647  -1.1226   C.ar      1 1      0.0000
     6 C6       2.2025  -0.1476  -1.2978   C.ar      1 1      0.0000
     7 H7       2.7961  -1.3276   1.8239   H         1 1      0.0000
     8 H8       0.4646  -0.5884   2.1108   H         1 1      0.0000
     9 H9       0.3660   0.7091  -1.9596   H         1 1      0.0000
    10 H10      2.6978  -0.0279  -2.2557   H         1 1      0.0000
    11 N11      4.2525  -1.1535  -0.4037   N.pl3     1 1      0.0000
    12 O12      4.7752  -1.0004  -1.4967   O.2       1 1      0.0000
    13 O13      4.8245  -1.6534   0.5524   O.2       1 1      0.0000
    14 CL3     -1.1986   0.5917   0.2786   C.3       1 1      0.0000
    15 CL1     -2.1466  -0.1511  -0.7052   C.3       1 1      0.0000
    16 H16     -3.1286   0.3365  -0.6818   H         1 1      0.0000
    17 H17     -1.7543  -0.0266  -1.7221   H         1 1      0.0000
    18 CL      -2.3443  -1.6558  -0.4500   C.3       1 1      0.0000
    19 CL2     -3.4254  -2.1762  -1.3794   C.3       1 1      0.0000
    20 H20     -3.6404  -3.2226  -1.1731   H         1 1      0.0000
    21 H21     -4.3461  -1.6101  -1.2552   H         1 1      0.0000
    22 H22     -3.1137  -2.0927  -2.4185   H         1 1      0.0000
    23 OL2     -1.5718   0.3449   1.6286   O.3       1 1      0.0000
    24 H24     -2.4908   0.6767   1.7814   H         1 1      0.0000
    25 N25     -1.1259  -2.3745  -0.7165   N.3       1 1      0.0000
    26 H26     -0.4356  -2.0554  -0.0368   H         1 1      0.0000
    27 C27     -1.1796  -3.8343  -0.6209   C.3       1 1      0.0000
    28 H28     -1.8662  -4.2441  -1.3587   H         1 1      0.0000
    29 H29     -0.1972  -4.2685  -0.7941   H         1 1      0.0000
    30 H30     -1.5179  -4.1440   0.3657   H         1 1      0.0000
    31 OL1     -2.8016  -1.8530   0.8826   O.3       1 1      0.0000
    32 H32     -2.9541  -2.8177   1.0384   H         1 1      0.0000
    33 CL4     -1.1658   2.1095   0.0095   C.2       1 1      0.0000
    34 C34     -0.9536   4.2546   0.9994   C.3       1 1      0.0000
    35 H35     -0.1276   4.5504   0.3408   H         1 1      0.0000
    36 H36     -1.8849   4.6259   0.5541   H         1 1      0.0000
    37 OL3     -1.2778   2.5919  -1.0837   O.2       1 1      0.0000
    38 OL4     -1.0001   2.8029   1.1292   O.3       1 1      0.0000
    39 C39     -0.7650   4.8332   2.3485   C.3       1 1      0.0000
    40 H40      0.1622   4.4787   2.7940   H         1 1      0.0000
    41 H41     -0.7242   5.9193   2.3001   H         1 1      0.0000
    42 H42     -1.5855   4.5538   3.0061   H         1 1      0.0000
@<TRIPOS>BOND
     1     1     2   ar
     2     1     6   ar
     3     1    11    1
     4     2     3   ar
     5     2     7    1
     6     3     4   ar
     7     3     8    1
     8     4     5   ar
     9     4    14    1
    10     5     6   ar
    11     5     9    1
    12     6    10    1
    13    11    12    2
    14    11    13    2
    15    14    15    1
    16    14    23    1
    17    14    33    1
    18    15    16    1
    19    15    17    1
    20    15    18    1
    21    18    19    1
    22    18    25    1
    23    18    31    1
    24    19    20    1
    25    19    21    1
    26    19    22    1
    27    23    24    1
    28    25    26    1
    29    25    27    1
    30    27    28    1
    31    27    29    1
    32    27    30    1
    33    31    32    1
    34    33    37    2
    35    33    38    1
    36    34    35    1
    37    34    36    1
    38    34    38    1
    39    34    39    1
    40    39    40    1
    41    39    41    1
    42    39    42    1
@<TRIPOS>SUBSTRUCTURE
     1 1           1 GROUP             0 ****  ****    0  
@<TRIPOS>MOLECULE
Molecule Name_00004
    42    42     1     0     0
SMALL
NO_CHARGES
****
Generated from the CSD

@<TRIPOS>ATOM
     1 C1       2.8137  -0.7607  -0.2070   C.ar      1 1      0.0000
     2 C2       2.2332  -0.9298   1.0303   C.ar      1 1      0.0000
     3 C3       0.9264  -0.5138   1.2101   C.ar      1 1      0.0000
     4 C4       0.2011   0.0666   0.1756   C.ar      1 1      0.0000
     5 C5       0.8252   0.2149  -1.0581   C.ar      1 1      0.0000
     6 C6       2.1309  -0.1940  -1.2602   C.ar      1 1      0.0000
     7 H7       2.7888  -1.3797   1.8464   H         1 1      0.0000
     8 H8       0.4619  -0.6464   2.1812   H         1 1      0.0000
     9 H9       0.2798   0.6600  -1.8835   H         1 1      0.0000
    10 H10      2.6068  -0.0711  -2.2275   H         1 1      0.0000
    11 N11      4.2005  -1.1973  -0.4092   N.pl3     1 1      0.0000
    12 O12      4.7011  -1.0406  -1.5119   O.2       1 1      0.0000
    13 O13      4.7924  -1.6981   0.5343   O.2       1 1      0.0000
    14 CL3     -1.2399   0.5341   0.3850   C.3       1 1      0.0000
    15 CL1     -2.2227  -0.3089  -0.4762   C.3       1 1      0.0000
    16 H16     -3.2291   0.1155  -0.3769   H         1 1      0.0000
    17 H17     -1.9359  -0.2031  -1.5297   H         1 1      0.0000
    18 CL      -2.2939  -1.8109  -0.1487   C.3       1 1      0.0000
    19 CL2     -3.3816  -2.4492  -0.9930   C.3       1 1      0.0000
    20 H20     -3.4141  -3.5247  -0.8313   H         1 1      0.0000
    21 H21     -4.3569  -2.0388  -0.7399   H         1 1      0.0000
    22 H22     -3.2030  -2.2708  -2.0513   H         1 1      0.0000
    23 OL2     -1.5409   0.4092   1.7693   O.3       1 1      0.0000
    24 H24     -2.4568   0.7420   1.9379   H         1 1      0.0000
    25 N25     -1.0415  -2.4512  -0.4545   N.3       1 1      0.0000
    26 H26     -1.1213  -3.4229  -0.1548   H         1 1      0.0000
    27 C27     -0.6277  -2.4677  -1.8587   C.3       1 1      0.0000
    28 H28     -0.6639  -1.4666  -2.2832   H         1 1      0.0000
    29 H29      0.3897  -2.8407  -1.9565   H         1 1      0.0000
    30 H30     -1.2817  -3.1088  -2.4460   H         1 1      0.0000
    31 OL1     -2.6628  -1.9804   1.2147   O.3       1 1      0.0000
    32 H32     -2.7334  -2.9456   1.4186   H         1 1      0.0000
    33 CL4     -1.2470   2.0206  -0.0242   C.2       1 1      0.0000
    34 C34     -1.0229   4.2509   0.7515   C.3       1 1      0.0000
    35 H35     -0.2361   4.4947   0.0269   H         1 1      0.0000
    36 H36     -1.9815   4.5674   0.3222   H         1 1      0.0000
    37 OL3     -1.4217   2.3978  -1.1500   O.2       1 1      0.0000
    38 OL4     -1.0377   2.8172   1.0168   O.3       1 1      0.0000
    39 C39     -0.7772   4.9547   2.0301   C.3       1 1      0.0000
    40 H40      0.1770   4.6550   2.4582   H         1 1      0.0000
    41 H41     -0.7578   6.0321   1.8797   H         1 1      0.0000
    42 H42     -1.5589   4.7273   2.7519   H         1 1      0.0000
@<TRIPOS>BOND
     1     1     2   ar
     2     1     6   ar
     3     1    11    1
     4     2     3   ar
     5     2     7    1
     6     3     4   ar
     7     3     8    1
     8     4     5   ar
     9     4    14    1
    10     5     6   ar
    11     5     9    1
    12     6    10    1
    13    11    12    2
    14    11    13    2
    15    14    15    1
    16    14    23    1
    17    14    33    1
    18    15    16    1
    19    15    17    1
    20    15    18    1
    21    18    19    1
    22    18    25    1
    23    18    31    1
    24    19    20    1
    25    19    21    1
    26    19    22    1
    27    23    24    1
    28    25    26    1
    29    25    27    1
    30    27    28    1
    31    27    29    1
    32    27    30    1
    33    31    32    1
    34    33    37    2
    35    33    38    1
    36    34    35    1
    37    34    36    1
    38    34    38    1
    39    34    39    1
    40    39    40    1
    41    39    41    1
    42    39    42    1
@<TRIPOS>SUBSTRUCTURE
     1 1           1 GROUP             0 ****  ****    0  
@<TRIPOS>MOLECULE
Molecule Name_00005
    42    42     1     0     0
SMALL
NO_CHARGES
****
Generated from the CSD

@<TRIPOS>ATOM
     1 C1       3.6002  -0.3652  -0.1917   C.ar      1 1      0.0000
     2 C2       3.0665  -0.6989   1.0332   C.ar      1 1      0.0000
     3 C3       1.6917  -0.6805   1.1827   C.ar      1 1      0.0000
     4 C4       0.8522  -0.3325   0.1303   C.ar      1 1      0.0000
     5 C5       1.4335  -0.0061  -1.0899   C.ar      1 1      0.0000
     6 C6       2.8058  -0.0180  -1.2618   C.ar      1 1      0.0000
     7 H7       3.7107  -0.9706   1.8629   H         1 1      0.0000
     8 H8       1.2643  -0.9449   2.1438   H         1 1      0.0000
     9 H9       0.8008   0.2639  -1.9287   H         1 1      0.0000
    10 H10      3.2469   0.2404  -2.2188   H         1 1      0.0000
    11 N11      5.0582  -0.3801  -0.3618   N.pl3     1 1      0.0000
    12 O12      5.5160  -0.0818  -1.4539   O.2       1 1      0.0000
    13 O13      5.7489  -0.6903   0.5963   O.2       1 1      0.0000
    14 CL3     -0.6667  -0.3039   0.3064   C.3       1 1      0.0000
    15 CL1     -1.3466  -1.3650  -0.6048   C.3       1 1      0.0000
    16 H16     -1.1290  -1.1201  -1.6514   H         1 1      0.0000
    17 H17     -0.8840  -2.3392  -0.4038   H         1 1      0.0000
    18 CL      -2.8698  -1.5175  -0.4474   C.3       1 1      0.0000
    19 CL2     -3.1712  -2.0568   0.9389   C.3       1 1      0.0000
    20 H20     -4.0040  -2.7563   0.9079   H         1 1      0.0000
    21 H21     -2.3069  -2.5766   1.3469   H         1 1      0.0000
    22 H22     -3.4327  -1.2485   1.6187   H         1 1      0.0000
    23 OL2     -0.9505  -0.5537   1.6773   O.3       1 1      0.0000
    24 H24     -1.8169  -0.1398   1.9143   H         1 1      0.0000
    25 N25     -3.5198  -0.2416  -0.5940   N.3       1 1      0.0000
    26 H26     -3.2833   0.1097  -1.5219   H         1 1      0.0000
    27 C27     -4.9796  -0.2219  -0.4868   C.3       1 1      0.0000
    28 H28     -5.2998  -0.5869   0.4869   H         1 1      0.0000
    29 H29     -5.3620   0.7889  -0.6123   H         1 1      0.0000
    30 H30     -5.4309  -0.8523  -1.2501   H         1 1      0.0000
    31 OL1     -3.3486  -2.4732  -1.3861   O.3       1 1      0.0000
    32 H32     -4.3195  -2.6064  -1.2533   H         1 1      0.0000
    33 CL4     -1.0906   1.1307  -0.0671   C.2       1 1      0.0000
    34 C34     -1.5263   3.3079   0.7675   C.3       1 1      0.0000
    35 H35     -0.8292   3.7875   0.0693   H         1 1      0.0000
    36 H36     -2.5277   3.3509   0.3216   H         1 1      0.0000
    37 OL3     -1.3459   1.4765  -1.1876   O.2       1 1      0.0000
    38 OL4     -1.1359   1.9219   0.9978   O.3       1 1      0.0000
    39 C39     -1.5145   4.0134   2.0685   C.3       1 1      0.0000
    40 H40     -0.5221   3.9851   2.5135   H         1 1      0.0000
    41 H41     -1.8008   5.0557   1.9446   H         1 1      0.0000
    42 H42     -2.2113   3.5509   2.7644   H         1 1      0.0000
@<TRIPOS>BOND
     1     1     2   ar
     2     1     6   ar
     3     1    11    1
     4     2     3   ar
     5     2     7    1
     6     3     4   ar
     7     3     8    1
     8     4     5   ar
     9     4    14    1
    10     5     6   ar
    11     5     9    1
    12     6    10    1
    13    11    12    2
    14    11    13    2
    15    14    15    1
    16    14    23    1
    17    14    33    1
    18    15    16    1
    19    15    17    1
    20    15    18    1
    21    18    19    1
    22    18    25    1
    23    18    31    1
    24    19    20    1
    25    19    21    1
    26    19    22    1
    27    23    24    1
    28    25    26    1
    29    25    27    1
    30    27    28    1
    31    27    29    1
    32    27    30    1
    33    31    32    1
    34    33    37    2
    35    33    38    1
    36    34    35    1
    37    34    36    1
    38    34    38    1
    39    34    39    1
    40    39    40    1
    41    39    41    1
    42    39    42    1
@<TRIPOS>SUBSTRUCTURE
     1 1           1 GROUP             0 ****  ****    0  
@<TRIPOS>MOLECULE
Molecule Name_00006
    42    42     1     0     0
SMALL
NO_CHARGES
****
Generated from the CSD

@<TRIPOS>ATOM
     1 C1       2.9541  -0.5707  -0.2687   C.ar      1 1      0.0000
     2 C2       2.3789  -0.8094   0.9596   C.ar      1 1      0.0000
     3 C3       1.0557  -0.4549   1.1503   C.ar      1 1      0.0000
     4 C4       0.3087   0.1328   0.1355   C.ar      1 1      0.0000
     5 C5       0.9282   0.3523  -1.0898   C.ar      1 1      0.0000
     6 C6       2.2501   0.0057  -1.3026   C.ar      1 1      0.0000
     7 H7       2.9514  -1.2657   1.7604   H         1 1      0.0000
     8 H8       0.5954  -0.6424   2.1143   H         1 1      0.0000
     9 H9       0.3662   0.8046  -1.9001   H         1 1      0.0000
    10 H10      2.7223   0.1839  -2.2631   H         1 1      0.0000
    11 N11      4.3582  -0.9417  -0.4823   N.pl3     1 1      0.0000
    12 O12      4.8537  -0.7237  -1.5769   O.2       1 1      0.0000
    13 O13      4.9687  -1.4519   0.4440   O.2       1 1      0.0000
    14 CL3     -1.1509   0.5320   0.3573   C.3       1 1      0.0000
    15 CL1     -2.0929  -0.2892  -0.5683   C.3       1 1      0.0000
    16 H16     -3.1198   0.0708  -0.4321   H         1 1      0.0000
    17 H17     -1.8192  -0.0817  -1.6101   H         1 1      0.0000
    18 CL      -2.0812  -1.8146  -0.3656   C.3       1 1      0.0000
    19 CL2     -2.4481  -2.1240   1.0743   C.3       1 1      0.0000
    20 H20     -2.8904  -3.1148   1.1552   H         1 1      0.0000
    21 H21     -1.5670  -2.0931   1.7119   H         1 1      0.0000
    22 H22     -3.1664  -1.4002   1.4533   H         1 1      0.0000
    23 OL2     -1.4602   0.3064   1.7269   O.3       1 1      0.0000
    24 H24     -2.3896   0.5935   1.9055   H         1 1      0.0000
    25 N25     -3.0460  -2.4431  -1.2294   N.3       1 1      0.0000
    26 H26     -2.8100  -2.1767  -2.1852   H         1 1      0.0000
    27 C27     -3.1165  -3.9050  -1.1962   C.3       1 1      0.0000
    28 H28     -3.6257  -4.2463  -0.2973   H         1 1      0.0000
    29 H29     -3.6605  -4.2845  -2.0587   H         1 1      0.0000
    30 H30     -2.1191  -4.3396  -1.2065   H         1 1      0.0000
    31 OL1     -0.7655  -2.3102  -0.5824   O.3       1 1      0.0000
    32 H32     -0.7224  -3.2593  -0.3080   H         1 1      0.0000
    33 CL4     -1.2101   2.0406   0.0447   C.2       1 1      0.0000
    34 C34     -1.0777   4.2227   0.9653   C.3       1 1      0.0000
    35 H35     -0.2938   4.5419   0.2675   H         1 1      0.0000
    36 H36     -2.0435   4.5306   0.5458   H         1 1      0.0000
    37 OL3     -1.3881   2.4834  -1.0565   O.2       1 1      0.0000
    38 OL4     -1.0410   2.7752   1.1374   O.3       1 1      0.0000
    39 C39     -0.8712   4.8506   2.2894   C.3       1 1      0.0000
    40 H40      0.0896   4.5593   2.7088   H         1 1      0.0000
    41 H41     -0.8909   5.9355   2.2091   H         1 1      0.0000
    42 H42     -1.6506   4.5481   2.9856   H         1 1      0.0000
@<TRIPOS>BOND
     1     1     2   ar
     2     1     6   ar
     3     1    11    1
     4     2     3   ar
     5     2     7    1
     6     3     4   ar
     7     3     8    1
     8     4     5   ar
     9     4    14    1
    10     5     6   ar
    11     5     9    1
    12     6    10    1
    13    11    12    2
    14    11    13    2
    15    14    15    1
    16    14    23    1
    17    14    33    1
    18    15    16    1
    19    15    17    1
    20    15    18    1
    21    18    19    1
    22    18    25    1
    23    18    31    1
    24    19    20    1
    25    19    21    1
    26    19    22    1
    27    23    24    1
    28    25    26    1
    29    25    27    1
    30    27    28    1
    31    27    29    1
    32    27    30    1
    33    31    32    1
    34    33    37    2
    35    33    38    1
    36    34    35    1
    37    34    36    1
    38    34    38    1
    39    34    39    1
    40    39    40    1
    41    39    41    1
    42    39    42    1
@<TRIPOS>SUBSTRUCTURE
     1 1           1 GROUP             0 ****  ****    0  
@<TRIPOS>MOLECULE
Molecule Name_00007
    42    42     1     0     0
SMALL
NO_CHARGES
****
Generated from the CSD

@<TRIPOS>ATOM
     1 C1       3.0428  -0.5218  -0.2689   C.ar      1 1      0.0000
     2 C2       2.4772  -0.7810   0.9597   C.ar      1 1      0.0000
     3 C3       1.1388  -0.4869   1.1469   C.ar      1 1      0.0000
     4 C4       0.3673   0.0613   0.1283   C.ar      1 1      0.0000
     5 C5       0.9780   0.3035  -1.0971   C.ar      1 1      0.0000
     6 C6       2.3148   0.0169  -1.3064   C.ar      1 1      0.0000
     7 H7       3.0687  -1.2070   1.7634   H         1 1      0.0000
     8 H8       0.6860  -0.6909   2.1111   H         1 1      0.0000
     9 H9       0.3971   0.7258  -1.9102   H         1 1      0.0000
    10 H10      2.7798   0.2123  -2.2671   H         1 1      0.0000
    11 N11      4.4628  -0.8289  -0.4788   N.pl3     1 1      0.0000
    12 O12      4.9495  -0.5933  -1.5737   O.2       1 1      0.0000
    13 O13      5.0946  -1.3064   0.4507   O.2       1 1      0.0000
    14 CL3     -1.1095   0.3941   0.3462   C.3       1 1      0.0000
    15 CL1     -2.0113  -0.4736  -0.5768   C.3       1 1      0.0000
    16 H16     -3.0535  -0.1580  -0.4466   H         1 1      0.0000
    17 H17     -1.7431  -0.2615  -1.6192   H         1 1      0.0000
    18 CL      -1.9338  -1.9957  -0.3636   C.3       1 1      0.0000
    19 CL2     -2.2937  -2.3113   1.0767   C.3       1 1      0.0000
    20 H20     -2.7086  -3.3137   1.1598   H         1 1      0.0000
    21 H21     -1.4147  -2.2543   1.7153   H         1 1      0.0000
    22 H22     -3.0323  -1.6066   1.4529   H         1 1      0.0000
    23 OL2     -1.4103   0.1608   1.7165   O.3       1 1      0.0000
    24 H24     -2.3522   0.4057   1.8925   H         1 1      0.0000
    25 N25     -2.8659  -2.6717  -1.2274   N.3       1 1      0.0000
    26 H26     -2.7623  -3.6717  -1.0551   H         1 1      0.0000
    27 C27     -4.2842  -2.3514  -1.0571   C.3       1 1      0.0000
    28 H28     -4.4658  -1.2948  -1.2420   H         1 1      0.0000
    29 H29     -4.8953  -2.9266  -1.7494   H         1 1      0.0000
    30 H30     -4.6123  -2.5797  -0.0452   H         1 1      0.0000
    31 OL1     -0.5966  -2.4346  -0.5710   O.3       1 1      0.0000
    32 H32     -0.5415  -3.4087  -0.4091   H         1 1      0.0000
    33 CL4     -1.2374   1.8970   0.0266   C.2       1 1      0.0000
    34 C34     -1.2068   4.0870   0.9373   C.3       1 1      0.0000
    35 H35     -0.4372   4.4387   0.2391   H         1 1      0.0000
    36 H36     -2.1850   4.3484   0.5151   H         1 1      0.0000
    37 OL3     -1.4338   2.3261  -1.0768   O.2       1 1      0.0000
    38 OL4     -1.1039   2.6435   1.1162   O.3       1 1      0.0000
    39 C39     -1.0314   4.7298   2.2588   C.3       1 1      0.0000
    40 H40     -0.0590   4.4848   2.6809   H         1 1      0.0000
    41 H41     -1.1008   5.8122   2.1735   H         1 1      0.0000
    42 H42     -1.7973   4.3949   2.9553   H         1 1      0.0000
@<TRIPOS>BOND
     1     1     2   ar
     2     1     6   ar
     3     1    11    1
     4     2     3   ar
     5     2     7    1
     6     3     4   ar
     7     3     8    1
     8     4     5   ar
     9     4    14    1
    10     5     6   ar
    11     5     9    1
    12     6    10    1
    13    11    12    2
    14    11    13    2
    15    14    15    1
    16    14    23    1
    17    14    33    1
    18    15    16    1
    19    15    17    1
    20    15    18    1
    21    18    19    1
    22    18    25    1
    23    18    31    1
    24    19    20    1
    25    19    21    1
    26    19    22    1
    27    23    24    1
    28    25    26    1
    29    25    27    1
    30    27    28    1
    31    27    29    1
    32    27    30    1
    33    31    32    1
    34    33    37    2
    35    33    38    1
    36    34    35    1
    37    34    36    1
    38    34    38    1
    39    34    39    1
    40    39    40    1
    41    39    41    1
    42    39    42    1
@<TRIPOS>SUBSTRUCTURE
     1 1           1 GROUP             0 ****  ****    0  
@<TRIPOS>MOLECULE
Molecule Name_00008
    42    42     1     0     0
SMALL
NO_CHARGES
****
Generated from the CSD

@<TRIPOS>ATOM
     1 C1       2.9514  -0.5975  -0.2429   C.ar      1 1      0.0000
     2 C2       2.4190  -0.7549   1.0175   C.ar      1 1      0.0000
     3 C3       1.0936  -0.4171   1.2224   C.ar      1 1      0.0000
     4 C4       0.3024   0.0746   0.1901   C.ar      1 1      0.0000
     5 C5       0.8797   0.2142  -1.0671   C.ar      1 1      0.0000
     6 C6       2.2029  -0.1176  -1.2946   C.ar      1 1      0.0000
     7 H7       3.0262  -1.1359   1.8320   H         1 1      0.0000
     8 H8       0.6669  -0.5410   2.2118   H         1 1      0.0000
     9 H9       0.2827   0.5906  -1.8911   H         1 1      0.0000
    10 H10      2.6418  -0.0024  -2.2802   H         1 1      0.0000
    11 N11      4.3574  -0.9517  -0.4719   N.pl3     1 1      0.0000
    12 O12      4.8147  -0.8065  -1.5949   O.2       1 1      0.0000
    13 O13      5.0077  -1.3760   0.4706   O.2       1 1      0.0000
    14 CL3     -1.1595   0.4563   0.4270   C.3       1 1      0.0000
    15 CL1     -2.1077  -0.4541  -0.4039   C.3       1 1      0.0000
    16 H16     -3.1384  -0.1058  -0.2660   H         1 1      0.0000
    17 H17     -1.8677  -0.3232  -1.4663   H         1 1      0.0000
    18 CL      -2.0556  -1.9584  -0.0837   C.3       1 1      0.0000
    19 CL2     -2.3764  -2.1617   1.3857   C.3       1 1      0.0000
    20 H20     -2.8119  -3.1446   1.5530   H         1 1      0.0000
    21 H21     -1.4762  -2.0823   1.9916   H         1 1      0.0000
    22 H22     -3.0856  -1.4132   1.7328   H         1 1      0.0000
    23 OL2     -1.4224   0.3288   1.8188   O.3       1 1      0.0000
    24 H24     -2.3529   0.6075   2.0044   H         1 1      0.0000
    25 N25     -3.0285  -2.6725  -0.8681   N.3       1 1      0.0000
    26 H26     -3.9451  -2.3017  -0.6177   H         1 1      0.0000
    27 C27     -2.9099  -2.5768  -2.3241   C.3       1 1      0.0000
    28 H28     -1.9479  -2.9594  -2.6586   H         1 1      0.0000
    29 H29     -3.6925  -3.1528  -2.8135   H         1 1      0.0000
    30 H30     -2.9955  -1.5426  -2.6509   H         1 1      0.0000
    31 OL1     -0.7351  -2.4419  -0.2990   O.3       1 1      0.0000
    32 H32     -0.6954  -3.4030  -0.0688   H         1 1      0.0000
    33 CL4     -1.2656   1.9350   0.0036   C.2       1 1      0.0000
    34 C34     -1.1606   4.1833   0.7523   C.3       1 1      0.0000
    35 H35     -0.4059   4.4662   0.0081   H         1 1      0.0000
    36 H36     -2.1457   4.4365   0.3414   H         1 1      0.0000
    37 OL3     -1.4872   2.2886  -1.1217   O.2       1 1      0.0000
    38 OL4     -1.0826   2.7543   1.0319   O.3       1 1      0.0000
    39 C39     -0.9306   4.9148   2.0182   C.3       1 1      0.0000
    40 H40      0.0491   4.6781   2.4279   H         1 1      0.0000
    41 H41     -0.9798   5.9897   1.8570   H         1 1      0.0000
    42 H42     -1.6813   4.6485   2.7594   H         1 1      0.0000
@<TRIPOS>BOND
     1     1     2   ar
     2     1     6   ar
     3     1    11    1
     4     2     3   ar
     5     2     7    1
     6     3     4   ar
     7     3     8    1
     8     4     5   ar
     9     4    14    1
    10     5     6   ar
    11     5     9    1
    12     6    10    1
    13    11    12    2
    14    11    13    2
    15    14    15    1
    16    14    23    1
    17    14    33    1
    18    15    16    1
    19    15    17    1
    20    15    18    1
    21    18    19    1
    22    18    25    1
    23    18    31    1
    24    19    20    1
    25    19    21    1
    26    19    22    1
    27    23    24    1
    28    25    26    1
    29    25    27    1
    30    27    28    1
    31    27    29    1
    32    27    30    1
    33    31    32    1
    34    33    37    2
    35    33    38    1
    36    34    35    1
    37    34    36    1
    38    34    38    1
    39    34    39    1
    40    39    40    1
    41    39    41    1
    42    39    42    1
@<TRIPOS>SUBSTRUCTURE
     1 1           1 GROUP             0 ****  ****    0  
@<TRIPOS>MOLECULE
Molecule Name_00009
    42    42     1     0     0
SMALL
NO_CHARGES
****
Generated from the CSD

@<TRIPOS>ATOM
     1 C1       2.9282  -0.6084  -0.4005   C.ar      1 1      0.0000
     2 C2       2.3068  -1.0194   0.7577   C.ar      1 1      0.0000
     3 C3       0.9882  -0.6571   0.9652   C.ar      1 1      0.0000
     4 C4       0.2913   0.1074   0.0361   C.ar      1 1      0.0000
     5 C5       0.9563   0.4975  -1.1210   C.ar      1 1      0.0000
     6 C6       2.2745   0.1464  -1.3490   C.ar      1 1      0.0000
     7 H7       2.8400  -1.6147   1.4915   H         1 1      0.0000
     8 H8       0.4916  -0.9795   1.8739   H         1 1      0.0000
     9 H9       0.4337   1.0900  -1.8645   H         1 1      0.0000
    10 H10      2.7825   0.4588  -2.2554   H         1 1      0.0000
    11 N11      4.3278  -0.9861  -0.6310   N.pl3     1 1      0.0000
    12 O12      4.8647  -0.6140  -1.6627   O.2       1 1      0.0000
    13 O13      4.8935  -1.6556   0.2193   O.2       1 1      0.0000
    14 CL3     -1.1633   0.5133   0.2776   C.3       1 1      0.0000
    15 CL1     -2.0960  -0.1163  -0.7958   C.3       1 1      0.0000
    16 H16     -3.1033   0.2998  -0.6729   H         1 1      0.0000
    17 H17     -1.7420   0.1960  -1.7860   H         1 1      0.0000
    18 CL      -2.1995  -1.6516  -0.7873   C.3       1 1      0.0000
    19 CL2     -0.8604  -2.2388  -1.1942   C.3       1 1      0.0000
    20 H20     -0.9969  -3.1768  -1.7284   H         1 1      0.0000
    21 H21     -0.3206  -1.5538  -1.8446   H         1 1      0.0000
    22 H22     -0.2429  -2.4335  -0.3198   H         1 1      0.0000
    23 OL2     -1.5249   0.0800   1.5830   O.3       1 1      0.0000
    24 H24     -2.4515   0.3650   1.7789   H         1 1      0.0000
    25 N25     -2.5255  -2.1255   0.5323   N.3       1 1      0.0000
    26 H26     -3.4153  -1.6995   0.7917   H         1 1      0.0000
    27 C27     -2.6764  -3.5717   0.7019   C.3       1 1      0.0000
    28 H28     -1.7556  -4.0888   0.4404   H         1 1      0.0000
    29 H29     -2.9208  -3.8156   1.7336   H         1 1      0.0000
    30 H30     -3.4721  -3.9537   0.0657   H         1 1      0.0000
    31 OL1     -3.1549  -2.0663  -1.7562   O.3       1 1      0.0000
    32 H32     -3.1872  -3.0544  -1.7840   H         1 1      0.0000
    33 CL4     -1.1700   2.0537   0.2125   C.2       1 1      0.0000
    34 C34     -1.0082   4.0531   1.4784   C.3       1 1      0.0000
    35 H35     -0.1925   4.4548   0.8646   H         1 1      0.0000
    36 H36     -1.9502   4.4563   1.0869   H         1 1      0.0000
    37 OL3     -1.2983   2.6740  -0.8069   O.2       1 1      0.0000
    38 OL4     -1.0175   2.5964   1.4143   O.3       1 1      0.0000
    39 C39     -0.8290   4.4520   2.8924   C.3       1 1      0.0000
    40 H40      0.1085   4.0654   3.2864   H         1 1      0.0000
    41 H41     -0.8159   5.5357   2.9887   H         1 1      0.0000
    42 H42     -1.6397   4.0669   3.5074   H         1 1      0.0000
@<TRIPOS>BOND
     1     1     2   ar
     2     1     6   ar
     3     1    11    1
     4     2     3   ar
     5     2     7    1
     6     3     4   ar
     7     3     8    1
     8     4     5   ar
     9     4    14    1
    10     5     6   ar
    11     5     9    1
    12     6    10    1
    13    11    12    2
    14    11    13    2
    15    14    15    1
    16    14    23    1
    17    14    33    1
    18    15    16    1
    19    15    17    1
    20    15    18    1
    21    18    19    1
    22    18    25    1
    23    18    31    1
    24    19    20    1
    25    19    21    1
    26    19    22    1
    27    23    24    1
    28    25    26    1
    29    25    27    1
    30    27    28    1
    31    27    29    1
    32    27    30    1
    33    31    32    1
    34    33    37    2
    35    33    38    1
    36    34    35    1
    37    34    36    1
    38    34    38    1
    39    34    39    1
    40    39    40    1
    41    39    41    1
    42    39    42    1
@<TRIPOS>SUBSTRUCTURE
     1 1           1 GROUP             0 ****  ****    0  
@<TRIPOS>MOLECULE
Molecule Name_00010
    42    42     1     0     0
SMALL
NO_CHARGES
****
Generated from the CSD

@<TRIPOS>ATOM
     1 C1       3.0183  -0.5605  -0.4042   C.ar      1 1      0.0000
     2 C2       2.4117  -0.9972   0.7524   C.ar      1 1      0.0000
     3 C3       1.0764  -0.6976   0.9527   C.ar      1 1      0.0000
     4 C4       0.3482   0.0299   0.0180   C.ar      1 1      0.0000
     5 C5       0.9994   0.4480  -1.1372   C.ar      1 1      0.0000
     6 C6       2.3339   0.1595  -1.3581   C.ar      1 1      0.0000
     7 H7       2.9692  -1.5642   1.4906   H         1 1      0.0000
     8 H8       0.5914  -1.0407   1.8601   H         1 1      0.0000
     9 H9       0.4527   1.0127  -1.8850   H         1 1      0.0000
    10 H10      2.8307   0.4931  -2.2631   H         1 1      0.0000
    11 N11      4.4354  -0.8716  -0.6270   N.pl3     1 1      0.0000
    12 O12      4.9589  -0.4773  -1.6574   O.2       1 1      0.0000
    13 O13      5.0284  -1.5109   0.2279   O.2       1 1      0.0000
    14 CL3     -1.1252   0.3668   0.2514   C.3       1 1      0.0000
    15 CL1     -2.0203  -0.2979  -0.8327   C.3       1 1      0.0000
    16 H16     -3.0430   0.0833  -0.7254   H         1 1      0.0000
    17 H17     -1.6634   0.0236  -1.8190   H         1 1      0.0000
    18 CL      -2.0707  -1.8359  -0.8205   C.3       1 1      0.0000
    19 CL2     -0.6958  -2.3775  -1.1670   C.3       1 1      0.0000
    20 H20     -0.7760  -3.3332  -1.6808   H         1 1      0.0000
    21 H21     -0.1618  -1.6872  -1.8167   H         1 1      0.0000
    22 H22     -0.1016  -2.5250  -0.2677   H         1 1      0.0000
    23 OL2     -1.4756  -0.0916   1.5513   O.3       1 1      0.0000
    24 H24     -2.3678   0.2593   1.7942   H         1 1      0.0000
    25 N25     -2.4361  -2.3158   0.4864   N.3       1 1      0.0000
    26 H26     -1.7297  -1.9751   1.1385   H         1 1      0.0000
    27 C27     -3.7388  -1.8990   1.0084   C.3       1 1      0.0000
    28 H28     -4.5458  -2.3236   0.4151   H         1 1      0.0000
    29 H29     -3.8652  -2.2284   2.0376   H         1 1      0.0000
    30 H30     -3.8348  -0.8155   0.9851   H         1 1      0.0000
    31 OL1     -2.9688  -2.2874  -1.8271   O.3       1 1      0.0000
    32 H32     -2.9819  -3.2763  -1.8364   H         1 1      0.0000
    33 CL4     -1.2025   1.9056   0.1962   C.2       1 1      0.0000
    34 C34     -1.1421   3.9017   1.4762   C.3       1 1      0.0000
    35 H35     -0.3415   4.3447   0.8710   H         1 1      0.0000
    36 H36     -2.0990   4.2637   1.0804   H         1 1      0.0000
    37 OL3     -1.3522   2.5263  -0.8200   O.2       1 1      0.0000
    38 OL4     -1.0837   2.4466   1.4026   O.3       1 1      0.0000
    39 C39     -0.9914   4.2989   2.8940   C.3       1 1      0.0000
    40 H40     -0.0398   3.9532   3.2923   H         1 1      0.0000
    41 H41     -1.0290   5.3813   2.9974   H         1 1      0.0000
    42 H42     -1.7877   3.8726   3.5006   H         1 1      0.0000
@<TRIPOS>BOND
     1     1     2   ar
     2     1     6   ar
     3     1    11    1
     4     2     3   ar
     5     2     7    1
     6     3     4   ar
     7     3     8    1
     8     4     5   ar
     9     4    14    1
    10     5     6   ar
    11     5     9    1
    12     6    10    1
    13    11    12    2
    14    11    13    2
    15    14    15    1
    16    14    23    1
    17    14    33    1
    18    15    16    1
    19    15    17    1
    20    15    18    1
    21    18    19    1
    22    18    25    1
    23    18    31    1
    24    19    20    1
    25    19    21    1
    26    19    22    1
    27    23    24    1
    28    25    26    1
    29    25    27    1
    30    27    28    1
    31    27    29    1
    32    27    30    1
    33    31    32    1
    34    33    37    2
    35    33    38    1
    36    34    35    1
    37    34    36    1
    38    34    38    1
    39    34    39    1
    40    39    40    1
    41    39    41    1
    42    39    42    1
@<TRIPOS>SUBSTRUCTURE
     1 1           1 GROUP             0 ****  ****    0  
@<TRIPOS>MOLECULE
Molecule Name_00011
    42    42     1     0     0
SMALL
NO_CHARGES
****
Generated from the CSD

@<TRIPOS>ATOM
     1 C1       3.5814  -0.3014  -0.1249   C.ar      1 1      0.0000
     2 C2       3.0620  -1.2262   0.7535   C.ar      1 1      0.0000
     3 C3       1.6923  -1.2628   0.9419   C.ar      1 1      0.0000
     4 C4       0.8440  -0.3905   0.2690   C.ar      1 1      0.0000
     5 C5       1.4108   0.5246  -0.6111   C.ar      1 1      0.0000
     6 C6       2.7777   0.5787  -0.8149   C.ar      1 1      0.0000
     7 H7       3.7132  -1.9113   1.2862   H         1 1      0.0000
     8 H8       1.2760  -1.9903   1.6301   H         1 1      0.0000
     9 H9       0.7707   1.2131  -1.1528   H         1 1      0.0000
    10 H10      3.2075   1.2988  -1.5033   H         1 1      0.0000
    11 N11      5.0338  -0.2525  -0.3319   N.pl3     1 1      0.0000
    12 O12      5.4789   0.5730  -1.1140   O.2       1 1      0.0000
    13 O13      5.7328  -1.0396   0.2870   O.2       1 1      0.0000
    14 CL3     -0.6687  -0.4297   0.4907   C.3       1 1      0.0000
    15 CL1     -1.4112  -0.7572  -0.8359   C.3       1 1      0.0000
    16 H16     -1.1852   0.0279  -1.5675   H         1 1      0.0000
    17 H17     -1.0028  -1.6927  -1.2376   H         1 1      0.0000
    18 CL      -2.9397  -0.9057  -0.7382   C.3       1 1      0.0000
    19 CL2     -3.5008  -1.1578  -2.1257   C.3       1 1      0.0000
    20 H20     -4.5858  -1.2330  -2.0952   H         1 1      0.0000
    21 H21     -3.2361  -0.3476  -2.8018   H         1 1      0.0000
    22 H22     -3.1083  -2.0851  -2.5378   H         1 1      0.0000
    23 OL2     -0.9379  -1.4145   1.4808   O.3       1 1      0.0000
    24 H24     -1.4876  -1.0160   2.1998   H         1 1      0.0000
    25 N25     -3.2829  -2.0212   0.1044   N.3       1 1      0.0000
    26 H26     -2.8757  -1.8394   1.0217   H         1 1      0.0000
    27 C27     -4.7077  -2.2853   0.3118   C.3       1 1      0.0000
    28 H28     -5.2009  -2.5045  -0.6329   H         1 1      0.0000
    29 H29     -4.8497  -3.1369   0.9739   H         1 1      0.0000
    30 H30     -5.1987  -1.4232   0.7585   H         1 1      0.0000
    31 OL1     -3.5040   0.3130  -0.2691   O.3       1 1      0.0000
    32 H32     -4.4897   0.2334  -0.2512   H         1 1      0.0000
    33 CL4     -1.0361   0.9692   1.0247   C.2       1 1      0.0000
    34 C34     -1.4655   3.2251   0.4308   C.3       1 1      0.0000
    35 H35     -2.4385   3.2433   0.9370   H         1 1      0.0000
    36 H36     -0.7183   3.6214   1.1294   H         1 1      0.0000
    37 OL3     -1.2187   1.2089   2.1865   O.2       1 1      0.0000
    38 OL4     -1.1226   1.8612   0.0455   O.3       1 1      0.0000
    39 C39     -1.5106   4.0538  -0.7947   C.3       1 1      0.0000
    40 H40     -2.2569   3.6744  -1.4896   H         1 1      0.0000
    41 H41     -1.7639   5.0842  -0.5545   H         1 1      0.0000
    42 H42     -0.5461   4.0504  -1.2982   H         1 1      0.0000
@<TRIPOS>BOND
     1     1     2   ar
     2     1     6   ar
     3     1    11    1
     4     2     3   ar
     5     2     7    1
     6     3     4   ar
     7     3     8    1
     8     4     5   ar
     9     4    14    1
    10     5     6   ar
    11     5     9    1
    12     6    10    1
    13    11    12    2
    14    11    13    2
    15    14    15    1
    16    14    23    1
    17    14    33    1
    18    15    16    1
    19    15    17    1
    20    15    18    1
    21    18    19    1
    22    18    25    1
    23    18    31    1
    24    19    20    1
    25    19    21    1
    26    19    22    1
    27    23    24    1
    28    25    26    1
    29    25    27    1
    30    27    28    1
    31    27    29    1
    32    27    30    1
    33    31    32    1
    34    33    37    2
    35    33    38    1
    36    34    35    1
    37    34    36    1
    38    34    38    1
    39    34    39    1
    40    39    40    1
    41    39    41    1
    42    39    42    1
@<TRIPOS>SUBSTRUCTURE
     1 1           1 GROUP             0 ****  ****    0  
@<TRIPOS>MOLECULE
Molecule Name_00012
    42    42     1     0     0
SMALL
NO_CHARGES
****
Generated from the CSD

@<TRIPOS>ATOM
     1 C1       3.4815  -0.3876  -0.1286   C.ar      1 1      0.0000
     2 C2       2.9374  -1.2720   0.7761   C.ar      1 1      0.0000
     3 C3       1.5696  -1.2511   0.9805   C.ar      1 1      0.0000
     4 C4       0.7477  -0.3615   0.2978   C.ar      1 1      0.0000
     5 C5       1.3387   0.5113  -0.6090   C.ar      1 1      0.0000
     6 C6       2.7042   0.5077  -0.8291   C.ar      1 1      0.0000
     7 H7       3.5680  -1.9700   1.3167   H         1 1      0.0000
     8 H8       1.1339  -1.9466   1.6895   H         1 1      0.0000
     9 H9       0.7193   1.2120  -1.1588   H         1 1      0.0000
    10 H10      3.1531   1.1952  -1.5383   H         1 1      0.0000
    11 N11      4.9321  -0.3998  -0.3529   N.pl3     1 1      0.0000
    12 O12      5.3993   0.3904  -1.1582   O.2       1 1      0.0000
    13 O13      5.6076  -1.1997   0.2758   O.2       1 1      0.0000
    14 CL3     -0.7626  -0.3370   0.5371   C.3       1 1      0.0000
    15 CL1     -1.5331  -0.6644  -0.7734   C.3       1 1      0.0000
    16 H16     -1.2858   0.0950  -1.5250   H         1 1      0.0000
    17 H17     -1.1661  -1.6238  -1.1586   H         1 1      0.0000
    18 CL      -3.0650  -0.7512  -0.6554   C.3       1 1      0.0000
    19 CL2     -3.6520  -1.0118  -2.0305   C.3       1 1      0.0000
    20 H20     -4.7365  -1.0834  -1.9797   H         1 1      0.0000
    21 H21     -3.3973  -0.2074  -2.7174   H         1 1      0.0000
    22 H22     -3.2699  -1.9433  -2.4428   H         1 1      0.0000
    23 OL2     -1.0577  -1.2886   1.5520   O.3       1 1      0.0000
    24 H24     -2.0258  -1.2650   1.7532   H         1 1      0.0000
    25 N25     -3.4408  -1.8337   0.2158   N.3       1 1      0.0000
    26 H26     -4.4595  -1.8360   0.2678   H         1 1      0.0000
    27 C27     -3.0282  -3.1812  -0.1806   C.3       1 1      0.0000
    28 H28     -1.9447  -3.2468  -0.2544   H         1 1      0.0000
    29 H29     -3.3634  -3.9170   0.5474   H         1 1      0.0000
    30 H30     -3.4504  -3.4449  -1.1481   H         1 1      0.0000
    31 OL1     -3.5761   0.4985  -0.2075   O.3       1 1      0.0000
    32 H32     -4.5626   0.4508  -0.1560   H         1 1      0.0000
    33 CL4     -1.0693   1.0866   1.0437   C.2       1 1      0.0000
    34 C34     -1.4184   3.3439   0.4041   C.3       1 1      0.0000
    35 H35     -2.3838   3.4110   0.9206   H         1 1      0.0000
    36 H36     -0.6481   3.7260   1.0853   H         1 1      0.0000
    37 OL3     -1.2285   1.3586   2.2017   O.2       1 1      0.0000
    38 OL4     -1.1331   1.9595   0.0457   O.3       1 1      0.0000
    39 C39     -1.4461   4.1465  -0.8391   C.3       1 1      0.0000
    40 H40     -2.2149   3.7812  -1.5169   H         1 1      0.0000
    41 H41     -1.6566   5.1910  -0.6192   H         1 1      0.0000
    42 H42     -0.4886   4.0946  -1.3531   H         1 1      0.0000
@<TRIPOS>BOND
     1     1     2   ar
     2     1     6   ar
     3     1    11    1
     4     2     3   ar
     5     2     7    1
     6     3     4   ar
     7     3     8    1
     8     4     5   ar
     9     4    14    1
    10     5     6   ar
    11     5     9    1
    12     6    10    1
    13    11    12    2
    14    11    13    2
    15    14    15    1
    16    14    23    1
    17    14    33    1
    18    15    16    1
    19    15    17    1
    20    15    18    1
    21    18    19    1
    22    18    25    1
    23    18    31    1
    24    19    20    1
    25    19    21    1
    26    19    22    1
    27    23    24    1
    28    25    26    1
    29    25    27    1
    30    27    28    1
    31    27    29    1
    32    27    30    1
    33    31    32    1
    34    33    37    2
    35    33    38    1
    36    34    35    1
    37    34    36    1
    38    34    38    1
    39    34    39    1
    40    39    40    1
    41    39    41    1
    42    39    42    1
@<TRIPOS>SUBSTRUCTURE
     1 1           1 GROUP             0 ****  ****    0  
@<TRIPOS>MOLECULE
Molecule Name_00013
    42    42     1     0     0
SMALL
NO_CHARGES
****
Generated from the CSD

@<TRIPOS>ATOM
     1 C1       2.8755  -0.6650  -0.1911   C.ar      1 1      0.0000
     2 C2       2.3032  -1.2996   0.8889   C.ar      1 1      0.0000
     3 C3       1.0053  -0.9721   1.2370   C.ar      1 1      0.0000
     4 C4       0.2807  -0.0232   0.5244   C.ar      1 1      0.0000
     5 C5       0.8962   0.5903  -0.5611   C.ar      1 1      0.0000
     6 C6       2.1929   0.2781  -0.9268   C.ar      1 1      0.0000
     7 H7       2.8585  -2.0406   1.4544   H         1 1      0.0000
     8 H8       0.5473  -1.4699   2.0847   H         1 1      0.0000
     9 H9       0.3510   1.3305  -1.1372   H         1 1      0.0000
    10 H10      2.6622   0.7654  -1.7751   H         1 1      0.0000
    11 N11      4.2528  -1.0037  -0.5690   N.pl3     1 1      0.0000
    12 O12      4.7461  -0.4323  -1.5289   O.2       1 1      0.0000
    13 O13      4.8446  -1.8419   0.0931   O.2       1 1      0.0000
    14 CL3     -1.1503   0.3416   0.9219   C.3       1 1      0.0000
    15 CL1     -2.1315   0.0847  -0.2568   C.3       1 1      0.0000
    16 H16     -3.1031   0.5283  -0.0077   H         1 1      0.0000
    17 H17     -1.7565   0.6168  -1.1398   H         1 1      0.0000
    18 CL      -2.3542  -1.3877  -0.6448   C.3       1 1      0.0000
    19 CL2     -3.4538  -1.4624  -1.6882   C.3       1 1      0.0000
    20 H20     -3.6856  -2.4973  -1.9309   H         1 1      0.0000
    21 H21     -4.3629  -0.9876  -1.3251   H         1 1      0.0000
    22 H22     -3.1512  -0.9591  -2.6041   H         1 1      0.0000
    23 OL2     -1.5003  -0.4429   2.0553   O.3       1 1      0.0000
    24 H24     -2.4098  -0.1977   2.3566   H         1 1      0.0000
    25 N25     -1.1519  -1.9464  -1.2055   N.3       1 1      0.0000
    26 H26     -0.4490  -1.9461  -0.4664   H         1 1      0.0000
    27 C27     -1.2312  -3.3139  -1.7219   C.3       1 1      0.0000
    28 H28     -1.9329  -3.3729  -2.5513   H         1 1      0.0000
    29 H29     -0.2587  -3.6493  -2.0763   H         1 1      0.0000
    30 H30     -1.5646  -4.0003  -0.9464   H         1 1      0.0000
    31 OL1     -2.8017  -2.1140   0.4936   O.3       1 1      0.0000
    32 H32     -2.9702  -3.0544   0.2381   H         1 1      0.0000
    33 CL4     -1.0953   1.8329   1.3094   C.2       1 1      0.0000
    34 C34     -1.0355   4.0550   0.4816   C.3       1 1      0.0000
    35 H35     -1.9020   4.3707   1.0756   H         1 1      0.0000
    36 H36     -0.1315   4.3125   1.0472   H         1 1      0.0000
    37 OL3     -1.0642   2.2228   2.4440   O.2       1 1      0.0000
    38 OL4     -1.0866   2.6180   0.2390   O.3       1 1      0.0000
    39 C39     -1.0338   4.7447  -0.8279   C.3       1 1      0.0000
    40 H40     -1.9324   4.5036  -1.3919   H         1 1      0.0000
    41 H41     -0.9962   5.8239  -0.6954   H         1 1      0.0000
    42 H42     -0.1715   4.4457  -1.4202   H         1 1      0.0000
@<TRIPOS>BOND
     1     1     2   ar
     2     1     6   ar
     3     1    11    1
     4     2     3   ar
     5     2     7    1
     6     3     4   ar
     7     3     8    1
     8     4     5   ar
     9     4    14    1
    10     5     6   ar
    11     5     9    1
    12     6    10    1
    13    11    12    2
    14    11    13    2
    15    14    15    1
    16    14    23    1
    17    14    33    1
    18    15    16    1
    19    15    17    1
    20    15    18    1
    21    18    19    1
    22    18    25    1
    23    18    31    1
    24    19    20    1
    25    19    21    1
    26    19    22    1
    27    23    24    1
    28    25    26    1
    29    25    27    1
    30    27    28    1
    31    27    29    1
    32    27    30    1
    33    31    32    1
    34    33    37    2
    35    33    38    1
    36    34    35    1
    37    34    36    1
    38    34    38    1
    39    34    39    1
    40    39    40    1
    41    39    41    1
    42    39    42    1
@<TRIPOS>SUBSTRUCTURE
     1 1           1 GROUP             0 ****  ****    0  
@<TRIPOS>MOLECULE
Molecule Name_00014
    42    42     1     0     0
SMALL
NO_CHARGES
****
Generated from the CSD

@<TRIPOS>ATOM
     1 C1       2.8418  -0.7184  -0.1809   C.ar      1 1      0.0000
     2 C2       2.2830  -1.3717   0.8950   C.ar      1 1      0.0000
     3 C3       0.9897  -1.0503   1.2650   C.ar      1 1      0.0000
     4 C4       0.2564  -0.0892   0.5781   C.ar      1 1      0.0000
     5 C5       0.8583   0.5431  -0.5042   C.ar      1 1      0.0000
     6 C6       2.1503   0.2372  -0.8916   C.ar      1 1      0.0000
     7 H7       2.8452  -2.1224   1.4406   H         1 1      0.0000
     8 H8       0.5423  -1.5627   2.1097   H         1 1      0.0000
     9 H9       0.3061   1.2931  -1.0606   H         1 1      0.0000
    10 H10      2.6090   0.7392  -1.7371   H         1 1      0.0000
    11 N11      4.2142  -1.0505  -0.5819   N.pl3     1 1      0.0000
    12 O12      4.6956  -0.4626  -1.5379   O.2       1 1      0.0000
    13 O13      4.8141  -1.9001   0.0581   O.2       1 1      0.0000
    14 CL3     -1.1694   0.2687   0.9998   C.3       1 1      0.0000
    15 CL1     -2.1801  -0.0719  -0.1319   C.3       1 1      0.0000
    16 H16     -3.1721   0.2913   0.1625   H         1 1      0.0000
    17 H17     -1.8916   0.4861  -1.0312   H         1 1      0.0000
    18 CL      -2.2989  -1.5590  -0.5096   C.3       1 1      0.0000
    19 CL2     -3.4146  -1.7227  -1.5254   C.3       1 1      0.0000
    20 H20     -3.4755  -2.7533  -1.8687   H         1 1      0.0000
    21 H21     -4.3747  -1.4530  -1.0906   H         1 1      0.0000
    22 H22     -3.2440  -1.0865  -2.3914   H         1 1      0.0000
    23 OL2     -1.4682  -0.4590   2.1846   O.3       1 1      0.0000
    24 H24     -2.3732  -0.2155   2.5004   H         1 1      0.0000
    25 N25     -1.0714  -2.0271  -1.0978   N.3       1 1      0.0000
    26 H26     -1.1773  -3.0296  -1.2531   H         1 1      0.0000
    27 C27     -0.6775  -1.4339  -2.3769   C.3       1 1      0.0000
    28 H28     -0.7060  -0.3476  -2.3233   H         1 1      0.0000
    29 H29      0.3333  -1.7335  -2.6460   H         1 1      0.0000
    30 H30     -1.3483  -1.7518  -3.1723   H         1 1      0.0000
    31 OL1     -2.6618  -2.3116   0.6418   O.3       1 1      0.0000
    32 H32     -2.7631  -3.2636   0.3937   H         1 1      0.0000
    33 CL4     -1.1346   1.7799   1.3036   C.2       1 1      0.0000
    34 C34     -1.1844   3.9542   0.3569   C.3       1 1      0.0000
    35 H35     -2.0246   4.2800   0.9826   H         1 1      0.0000
    36 H36     -0.2575   4.2648   0.8547   H         1 1      0.0000
    37 OL3     -1.0505   2.2318   2.4123   O.2       1 1      0.0000
    38 OL4     -1.2087   2.5053   0.1944   O.3       1 1      0.0000
    39 C39     -1.2763   4.5711  -0.9853   C.3       1 1      0.0000
    40 H40     -2.1982   4.2770  -1.4826   H         1 1      0.0000
    41 H41     -1.2617   5.6566  -0.9126   H         1 1      0.0000
    42 H42     -0.4407   4.2619  -1.6098   H         1 1      0.0000
@<TRIPOS>BOND
     1     1     2   ar
     2     1     6   ar
     3     1    11    1
     4     2     3   ar
     5     2     7    1
     6     3     4   ar
     7     3     8    1
     8     4     5   ar
     9     4    14    1
    10     5     6   ar
    11     5     9    1
    12     6    10    1
    13    11    12    2
    14    11    13    2
    15    14    15    1
    16    14    23    1
    17    14    33    1
    18    15    16    1
    19    15    17    1
    20    15    18    1
    21    18    19    1
    22    18    25    1
    23    18    31    1
    24    19    20    1
    25    19    21    1
    26    19    22    1
    27    23    24    1
    28    25    26    1
    29    25    27    1
    30    27    28    1
    31    27    29    1
    32    27    30    1
    33    31    32    1
    34    33    37    2
    35    33    38    1
    36    34    35    1
    37    34    36    1
    38    34    38    1
    39    34    39    1
    40    39    40    1
    41    39    41    1
    42    39    42    1
@<TRIPOS>SUBSTRUCTURE
     1 1           1 GROUP             0 ****  ****    0  
@<TRIPOS>MOLECULE
Molecule Name_00015
    42    42     1     0     0
SMALL
NO_CHARGES
****
Generated from the CSD

@<TRIPOS>ATOM
     1 C1       3.6039  -0.2857  -0.1483   C.ar      1 1      0.0000
     2 C2       3.1189  -1.2782   0.6740   C.ar      1 1      0.0000
     3 C3       1.7518  -1.3730   0.8609   C.ar      1 1      0.0000
     4 C4       0.8723  -0.4918   0.2417   C.ar      1 1      0.0000
     5 C5       1.4049   0.4928  -0.5830   C.ar      1 1      0.0000
     6 C6       2.7686   0.6057  -0.7842   C.ar      1 1      0.0000
     7 H7       3.7946  -1.9710   1.1645   H         1 1      0.0000
     8 H8       1.3626  -2.1539   1.5051   H         1 1      0.0000
     9 H9       0.7402   1.1898  -1.0823   H         1 1      0.0000
    10 H10      3.1716   1.3797  -1.4290   H         1 1      0.0000
    11 N11      5.0532  -0.1748  -0.3532   N.pl3     1 1      0.0000
    12 O12      5.4675   0.7105  -1.0852   O.2       1 1      0.0000
    13 O13      5.7805  -0.9727   0.2173   O.2       1 1      0.0000
    14 CL3     -0.6376  -0.5960   0.4619   C.3       1 1      0.0000
    15 CL1     -1.3721  -0.8696  -0.8813   C.3       1 1      0.0000
    16 H16     -1.1701  -0.0382  -1.5674   H         1 1      0.0000
    17 H17     -0.9374  -1.7687  -1.3350   H         1 1      0.0000
    18 CL      -2.8956  -1.0677  -0.7924   C.3       1 1      0.0000
    19 CL2     -3.1844  -2.3179   0.0182   C.3       1 1      0.0000
    20 H20     -4.1227  -2.7717  -0.2937   H         1 1      0.0000
    21 H21     -2.3928  -3.0529  -0.1114   H         1 1      0.0000
    22 H22     -3.2577  -2.0820   1.0778   H         1 1      0.0000
    23 OL2     -0.8701  -1.6465   1.3919   O.3       1 1      0.0000
    24 H24     -1.5573  -1.3621   2.0438   H         1 1      0.0000
    25 N25     -3.5106   0.0561  -0.1361   N.3       1 1      0.0000
    26 H26     -3.2829   0.8847  -0.6856   H         1 1      0.0000
    27 C27     -4.9667   0.0258   0.0116   C.3       1 1      0.0000
    28 H28     -5.2774  -0.8399   0.5928   H         1 1      0.0000
    29 H29     -5.3216   0.9201   0.5195   H         1 1      0.0000
    30 H30     -5.4520  -0.0269  -0.9607   H         1 1      0.0000
    31 OL1     -3.4216  -1.2791  -2.0972   O.3       1 1      0.0000
    32 H32     -4.3932  -1.4534  -2.0357   H         1 1      0.0000
    33 CL4     -1.0511   0.7553   1.0783   C.2       1 1      0.0000
    34 C34     -1.5591   3.0264   0.6196   C.3       1 1      0.0000
    35 H35     -2.5308   2.9811   1.1268   H         1 1      0.0000
    36 H36     -0.8240   3.4059   1.3400   H         1 1      0.0000
    37 OL3     -1.2386   0.9192   2.2523   O.2       1 1      0.0000
    38 OL4     -1.1709   1.7003   0.1538   O.3       1 1      0.0000
    39 C39     -1.6360   3.9242  -0.5545   C.3       1 1      0.0000
    40 H40     -2.3709   3.5613  -1.2701   H         1 1      0.0000
    41 H41     -1.9237   4.9293  -0.2533   H         1 1      0.0000
    42 H42     -0.6733   3.9838  -1.0581   H         1 1      0.0000
@<TRIPOS>BOND
     1     1     2   ar
     2     1     6   ar
     3     1    11    1
     4     2     3   ar
     5     2     7    1
     6     3     4   ar
     7     3     8    1
     8     4     5   ar
     9     4    14    1
    10     5     6   ar
    11     5     9    1
    12     6    10    1
    13    11    12    2
    14    11    13    2
    15    14    15    1
    16    14    23    1
    17    14    33    1
    18    15    16    1
    19    15    17    1
    20    15    18    1
    21    18    19    1
    22    18    25    1
    23    18    31    1
    24    19    20    1
    25    19    21    1
    26    19    22    1
    27    23    24    1
    28    25    26    1
    29    25    27    1
    30    27    28    1
    31    27    29    1
    32    27    30    1
    33    31    32    1
    34    33    37    2
    35    33    38    1
    36    34    35    1
    37    34    36    1
    38    34    38    1
    39    34    39    1
    40    39    40    1
    41    39    41    1
    42    39    42    1
@<TRIPOS>SUBSTRUCTURE
     1 1           1 GROUP             0 ****  ****    0  
@<TRIPOS>MOLECULE
Molecule Name_00016
    42    42     1     0     0
SMALL
NO_CHARGES
****
Generated from the CSD

@<TRIPOS>ATOM
     1 C1       2.9732  -0.5228  -0.2407   C.ar      1 1      0.0000
     2 C2       2.4537  -1.2359   0.8168   C.ar      1 1      0.0000
     3 C3       1.1508  -0.9850   1.2072   C.ar      1 1      0.0000
     4 C4       0.3695  -0.0351   0.5588   C.ar      1 1      0.0000
     5 C5       0.9328   0.6591  -0.5062   C.ar      1 1      0.0000
     6 C6       2.2335   0.4243  -0.9135   C.ar      1 1      0.0000
     7 H7       3.0536  -1.9785   1.3324   H         1 1      0.0000
     8 H8       0.7343  -1.5447   2.0375   H         1 1      0.0000
     9 H9       0.3428   1.4019  -1.0326   H         1 1      0.0000
    10 H10      2.6618   0.9742  -1.7450   H         1 1      0.0000
    11 N11      4.3553  -0.7797  -0.6632   N.pl3     1 1      0.0000
    12 O12      4.8013  -0.1393  -1.6024   O.2       1 1      0.0000
    13 O13      4.9980  -1.6226  -0.0568   O.2       1 1      0.0000
    14 CL3     -1.0669   0.2445   1.0032   C.3       1 1      0.0000
    15 CL1     -2.0684  -0.0620  -0.1463   C.3       1 1      0.0000
    16 H16     -3.0770   0.2144   0.1839   H         1 1      0.0000
    17 H17     -1.8245   0.5853  -0.9978   H         1 1      0.0000
    18 CL      -2.1018  -1.5171  -0.6461   C.3       1 1      0.0000
    19 CL2     -2.4283  -2.4321   0.5199   C.3       1 1      0.0000
    20 H20     -2.9011  -3.3478   0.1710   H         1 1      0.0000
    21 H21     -1.5249  -2.7027   1.0625   H         1 1      0.0000
    22 H22     -3.1077  -1.9435   1.2151   H         1 1      0.0000
    23 OL2     -1.3355  -0.5650   2.1412   O.3       1 1      0.0000
    24 H24     -2.2477  -0.3742   2.4723   H         1 1      0.0000
    25 N25     -3.1173  -1.6786  -1.6535   N.3       1 1      0.0000
    26 H26     -2.9060  -1.0164  -2.4000   H         1 1      0.0000
    27 C27     -3.2365  -2.9998  -2.2727   C.3       1 1      0.0000
    28 H28     -3.7335  -3.6969  -1.6013   H         1 1      0.0000
    29 H29     -3.8153  -2.9439  -3.1923   H         1 1      0.0000
    30 H30     -2.2551  -3.4027  -2.5138   H         1 1      0.0000
    31 OL1     -0.8122  -1.8830  -1.1224   O.3       1 1      0.0000
    32 H32     -0.7905  -2.8561  -1.2976   H         1 1      0.0000
    33 CL4     -1.0854   1.7344   1.3995   C.2       1 1      0.0000
    34 C34     -1.2023   3.9601   0.5877   C.3       1 1      0.0000
    35 H35     -2.0572   4.2185   1.2246   H         1 1      0.0000
    36 H36     -0.2898   4.2702   1.1118   H         1 1      0.0000
    37 OL3     -1.0243   2.1197   2.5345   O.2       1 1      0.0000
    38 OL4     -1.1763   2.5240   0.3363   O.3       1 1      0.0000
    39 C39     -1.3057   4.6551  -0.7149   C.3       1 1      0.0000
    40 H40     -2.2137   4.3617  -1.2376   H         1 1      0.0000
    41 H41     -1.3283   5.7340  -0.5757   H         1 1      0.0000
    42 H42     -0.4559   4.4131  -1.3497   H         1 1      0.0000
@<TRIPOS>BOND
     1     1     2   ar
     2     1     6   ar
     3     1    11    1
     4     2     3   ar
     5     2     7    1
     6     3     4   ar
     7     3     8    1
     8     4     5   ar
     9     4    14    1
    10     5     6   ar
    11     5     9    1
    12     6    10    1
    13    11    12    2
    14    11    13    2
    15    14    15    1
    16    14    23    1
    17    14    33    1
    18    15    16    1
    19    15    17    1
    20    15    18    1
    21    18    19    1
    22    18    25    1
    23    18    31    1
    24    19    20    1
    25    19    21    1
    26    19    22    1
    27    23    24    1
    28    25    26    1
    29    25    27    1
    30    27    28    1
    31    27    29    1
    32    27    30    1
    33    31    32    1
    34    33    37    2
    35    33    38    1
    36    34    35    1
    37    34    36    1
    38    34    38    1
    39    34    39    1
    40    39    40    1
    41    39    41    1
    42    39    42    1
@<TRIPOS>SUBSTRUCTURE
     1 1           1 GROUP             0 ****  ****    0  
@<TRIPOS>MOLECULE
Molecule Name_00017
    42    42     1     0     0
SMALL
NO_CHARGES
****
Generated from the CSD

@<TRIPOS>ATOM
     1 C1       3.0582  -0.4659  -0.2519   C.ar      1 1      0.0000
     2 C2       2.5499  -1.2357   0.7707   C.ar      1 1      0.0000
     3 C3       1.2312  -1.0513   1.1447   C.ar      1 1      0.0000
     4 C4       0.4231  -0.1117   0.5142   C.ar      1 1      0.0000
     5 C5       0.9762   0.6413  -0.5156   C.ar      1 1      0.0000
     6 C6       2.2923   0.4734  -0.9059   C.ar      1 1      0.0000
     7 H7       3.1705  -1.9710   1.2720   H         1 1      0.0000
     8 H8       0.8233  -1.6559   1.9474   H         1 1      0.0000
     9 H9       0.3656   1.3775  -1.0276   H         1 1      0.0000
    10 H10      2.7123   1.0686  -1.7100   H         1 1      0.0000
    11 N11      4.4569  -0.6521  -0.6566   N.pl3     1 1      0.0000
    12 O12      4.8928   0.0380  -1.5648   O.2       1 1      0.0000
    13 O13      5.1228  -1.4889  -0.0671   O.2       1 1      0.0000
    14 CL3     -1.0312   0.0942   0.9405   C.3       1 1      0.0000
    15 CL1     -1.9989  -0.2123  -0.2376   C.3       1 1      0.0000
    16 H16     -3.0232   0.0152   0.0814   H         1 1      0.0000
    17 H17     -1.7642   0.4709  -1.0631   H         1 1      0.0000
    18 CL      -1.9676  -1.6507  -0.7838   C.3       1 1      0.0000
    19 CL2     -2.2821  -2.6145   0.3457   C.3       1 1      0.0000
    20 H20     -2.7266  -3.5294  -0.0405   H         1 1      0.0000
    21 H21     -1.3777  -2.8801   0.8890   H         1 1      0.0000
    22 H22     -2.9817  -2.1686   1.0496   H         1 1      0.0000
    23 OL2     -1.2864  -0.7646   2.0450   O.3       1 1      0.0000
    24 H24     -2.2113  -0.6224   2.3651   H         1 1      0.0000
    25 N25     -2.9563  -1.8170  -1.8166   N.3       1 1      0.0000
    26 H26     -2.8820  -2.7781  -2.1498   H         1 1      0.0000
    27 C27     -4.3545  -1.5999  -1.4409   C.3       1 1      0.0000
    28 H28     -4.5053  -0.5820  -1.0876   H         1 1      0.0000
    29 H29     -5.0124  -1.7643  -2.2917   H         1 1      0.0000
    30 H30     -4.6508  -2.2818  -0.6466   H         1 1      0.0000
    31 OL1     -0.6561  -1.9529  -1.2445   O.3       1 1      0.0000
    32 H32     -0.6296  -2.8857  -1.5721   H         1 1      0.0000
    33 CL4     -1.1176   1.5674   1.3869   C.2       1 1      0.0000
    34 C34     -1.3112   3.8135   0.6493   C.3       1 1      0.0000
    35 H35     -2.1871   4.0149   1.2782   H         1 1      0.0000
    36 H36     -0.4215   4.1416   1.2009   H         1 1      0.0000
    37 OL3     -1.0923   1.9151   2.5353   O.2       1 1      0.0000
    38 OL4     -1.2220   2.3892   0.3497   O.3       1 1      0.0000
    39 C39     -1.4200   4.5487  -0.6306   C.3       1 1      0.0000
    40 H40     -2.3059   4.2373  -1.1802   H         1 1      0.0000
    41 H41     -1.4892   5.6202  -0.4552   H         1 1      0.0000
    42 H42     -0.5500   4.3633  -1.2571   H         1 1      0.0000
@<TRIPOS>BOND
     1     1     2   ar
     2     1     6   ar
     3     1    11    1
     4     2     3   ar
     5     2     7    1
     6     3     4   ar
     7     3     8    1
     8     4     5   ar
     9     4    14    1
    10     5     6   ar
    11     5     9    1
    12     6    10    1
    13    11    12    2
    14    11    13    2
    15    14    15    1
    16    14    23    1
    17    14    33    1
    18    15    16    1
    19    15    17    1
    20    15    18    1
    21    18    19    1
    22    18    25    1
    23    18    31    1
    24    19    20    1
    25    19    21    1
    26    19    22    1
    27    23    24    1
    28    25    26    1
    29    25    27    1
    30    27    28    1
    31    27    29    1
    32    27    30    1
    33    31    32    1
    34    33    37    2
    35    33    38    1
    36    34    35    1
    37    34    36    1
    38    34    38    1
    39    34    39    1
    40    39    40    1
    41    39    41    1
    42    39    42    1
@<TRIPOS>SUBSTRUCTURE
     1 1           1 GROUP             0 ****  ****    0  
@<TRIPOS>MOLECULE
Molecule Name_00018
    42    42     1     0     0
SMALL
NO_CHARGES
****
Generated from the CSD

@<TRIPOS>ATOM
     1 C1       2.9766  -0.5462  -0.2307   C.ar      1 1      0.0000
     2 C2       2.4908  -1.2362   0.8577   C.ar      1 1      0.0000
     3 C3       1.1860  -1.0090   1.2561   C.ar      1 1      0.0000
     4 C4       0.3696  -0.1052   0.5852   C.ar      1 1      0.0000
     5 C5       0.8998   0.5669  -0.5105   C.ar      1 1      0.0000
     6 C6       2.2018   0.3551  -0.9263   C.ar      1 1      0.0000
     7 H7       3.1181  -1.9428   1.3910   H         1 1      0.0000
     8 H8       0.7958  -1.5508   2.1108   H         1 1      0.0000
     9 H9       0.2823   1.2735  -1.0548   H         1 1      0.0000
    10 H10      2.6039   0.8873  -1.7820   H         1 1      0.0000
    11 N11      4.3604  -0.7784  -0.6619   N.pl3     1 1      0.0000
    12 O12      4.7764  -0.1589  -1.6286   O.2       1 1      0.0000
    13 O13      5.0345  -1.5806  -0.0349   O.2       1 1      0.0000
    14 CL3     -1.0688   0.1488   1.0383   C.3       1 1      0.0000
    15 CL1     -2.0747  -0.2265  -0.0867   C.3       1 1      0.0000
    16 H16     -3.0864   0.0359   0.2453   H         1 1      0.0000
    17 H17     -1.8575   0.3944  -0.9646   H         1 1      0.0000
    18 CL      -2.0755  -1.6997  -0.5315   C.3       1 1      0.0000
    19 CL2     -2.3658  -2.5784   0.6715   C.3       1 1      0.0000
    20 H20     -2.8304  -3.5127   0.3635   H         1 1      0.0000
    21 H21     -1.4484  -2.8160   1.2059   H         1 1      0.0000
    22 H22     -3.0400  -2.0762   1.3622   H         1 1      0.0000
    23 OL2     -1.3002  -0.6275   2.2072   O.3       1 1      0.0000
    24 H24     -2.2134  -0.4513   2.5433   H         1 1      0.0000
    25 N25     -3.0969  -1.9249  -1.5205   N.3       1 1      0.0000
    26 H26     -3.9908  -1.6995  -1.0840   H         1 1      0.0000
    27 C27     -3.0125  -1.1424  -2.7548   C.3       1 1      0.0000
    28 H28     -2.0759  -1.3386  -3.2726   H         1 1      0.0000
    29 H29     -3.8304  -1.3930  -3.4271   H         1 1      0.0000
    30 H30     -3.0644  -0.0770  -2.5403   H         1 1      0.0000
    31 OL1     -0.7819  -2.0501  -1.0085   O.3       1 1      0.0000
    32 H32     -0.7754  -3.0037  -1.2706   H         1 1      0.0000
    33 CL4     -1.1257   1.6505   1.3826   C.2       1 1      0.0000
    34 C34     -1.3167   3.8420   0.4953   C.3       1 1      0.0000
    35 H35     -2.1711   4.0982   1.1339   H         1 1      0.0000
    36 H36     -0.4074   4.1963   0.9964   H         1 1      0.0000
    37 OL3     -1.0621   2.0772   2.5026   O.2       1 1      0.0000
    38 OL4     -1.2522   2.3993   0.2938   O.3       1 1      0.0000
    39 C39     -1.4559   4.4875  -0.8293   C.3       1 1      0.0000
    40 H40     -2.3612   4.1501  -1.3296   H         1 1      0.0000
    41 H41     -1.5081   5.5695  -0.7274   H         1 1      0.0000
    42 H42     -0.6071   4.2477  -1.4663   H         1 1      0.0000
@<TRIPOS>BOND
     1     1     2   ar
     2     1     6   ar
     3     1    11    1
     4     2     3   ar
     5     2     7    1
     6     3     4   ar
     7     3     8    1
     8     4     5   ar
     9     4    14    1
    10     5     6   ar
    11     5     9    1
    12     6    10    1
    13    11    12    2
    14    11    13    2
    15    14    15    1
    16    14    23    1
    17    14    33    1
    18    15    16    1
    19    15    17    1
    20    15    18    1
    21    18    19    1
    22    18    25    1
    23    18    31    1
    24    19    20    1
    25    19    21    1
    26    19    22    1
    27    23    24    1
    28    25    26    1
    29    25    27    1
    30    27    28    1
    31    27    29    1
    32    27    30    1
    33    31    32    1
    34    33    37    2
    35    33    38    1
    36    34    35    1
    37    34    36    1
    38    34    38    1
    39    34    39    1
    40    39    40    1
    41    39    41    1
    42    39    42    1
@<TRIPOS>SUBSTRUCTURE
     1 1           1 GROUP             0 ****  ****    0  
@<TRIPOS>MOLECULE
Molecule Name_00019
    42    42     1     0     0
SMALL
NO_CHARGES
****
Generated from the CSD

@<TRIPOS>ATOM
     1 C1       3.5815  -0.2992  -0.0559   C.ar      1 1      0.0000
     2 C2       3.0909  -1.0388   0.9972   C.ar      1 1      0.0000
     3 C3       1.7260  -1.0472   1.2203   C.ar      1 1      0.0000
     4 C4       0.8542  -0.3282   0.4101   C.ar      1 1      0.0000
     5 C5       1.3923   0.4018  -0.6439   C.ar      1 1      0.0000
     6 C6       2.7539   0.4244  -0.8853   C.ar      1 1      0.0000
     7 H7       3.7607  -1.6028   1.6380   H         1 1      0.0000
     8 H8       1.3322  -1.6296   2.0461   H         1 1      0.0000
     9 H9       0.7334   0.9674  -1.2944   H         1 1      0.0000
    10 H10      3.1612   0.9995  -1.7103   H         1 1      0.0000
    11 N11      5.0286  -0.2819  -0.3014   N.pl3     1 1      0.0000
    12 O12      5.4481   0.3785  -1.2390   O.2       1 1      0.0000
    13 O13      5.7492  -0.9287   0.4427   O.2       1 1      0.0000
    14 CL3     -0.6530  -0.3336   0.6695   C.3       1 1      0.0000
    15 CL1     -1.4207  -0.9033  -0.5570   C.3       1 1      0.0000
    16 H16     -1.3014  -0.2103  -1.3986   H         1 1      0.0000
    17 H17     -0.9459  -1.8469  -0.8530   H         1 1      0.0000
    18 CL      -2.9230  -1.1673  -0.3534   C.3       1 1      0.0000
    19 CL2     -3.5990   0.1254   0.0653   C.3       1 1      0.0000
    20 H20     -4.6777   0.0540  -0.0578   H         1 1      0.0000
    21 H21     -3.3911   0.3487   1.1096   H         1 1      0.0000
    22 H22     -3.2437   0.9590  -0.5368   H         1 1      0.0000
    23 OL2     -0.8918  -1.1208   1.8296   O.3       1 1      0.0000
    24 H24     -1.8577  -1.1088   2.0418   H         1 1      0.0000
    25 N25     -3.5235  -1.6219  -1.5801   N.3       1 1      0.0000
    26 H26     -3.0234  -2.4645  -1.8636   H         1 1      0.0000
    27 C27     -4.9470  -1.9611  -1.5387   C.3       1 1      0.0000
    28 H28     -5.5544  -1.0642  -1.4368   H         1 1      0.0000
    29 H29     -5.2482  -2.4726  -2.4505   H         1 1      0.0000
    30 H30     -5.1634  -2.6146  -0.6962   H         1 1      0.0000
    31 OL1     -3.0997  -2.0994   0.7067   O.3       1 1      0.0000
    32 H32     -4.0647  -2.2001   0.8983   H         1 1      0.0000
    33 CL4     -1.0217   1.1378   0.9455   C.2       1 1      0.0000
    34 C34     -1.4447   3.2532  -0.0407   C.3       1 1      0.0000
    35 H35     -2.4206   3.3608   0.4486   H         1 1      0.0000
    36 H36     -0.7010   3.7666   0.5812   H         1 1      0.0000
    37 OL3     -1.2107   1.5792   2.0454   O.2       1 1      0.0000
    38 OL4     -1.1014   1.8425  -0.1766   O.3       1 1      0.0000
    39 C39     -1.4816   3.8519  -1.3937   C.3       1 1      0.0000
    40 H40     -2.2244   3.3558  -2.0149   H         1 1      0.0000
    41 H41     -1.7350   4.9087  -1.3411   H         1 1      0.0000
    42 H42     -0.5142   3.7594  -1.8830   H         1 1      0.0000
@<TRIPOS>BOND
     1     1     2   ar
     2     1     6   ar
     3     1    11    1
     4     2     3   ar
     5     2     7    1
     6     3     4   ar
     7     3     8    1
     8     4     5   ar
     9     4    14    1
    10     5     6   ar
    11     5     9    1
    12     6    10    1
    13    11    12    2
    14    11    13    2
    15    14    15    1
    16    14    23    1
    17    14    33    1
    18    15    16    1
    19    15    17    1
    20    15    18    1
    21    18    19    1
    22    18    25    1
    23    18    31    1
    24    19    20    1
    25    19    21    1
    26    19    22    1
    27    23    24    1
    28    25    26    1
    29    25    27    1
    30    27    28    1
    31    27    29    1
    32    27    30    1
    33    31    32    1
    34    33    37    2
    35    33    38    1
    36    34    35    1
    37    34    36    1
    38    34    38    1
    39    34    39    1
    40    39    40    1
    41    39    41    1
    42    39    42    1
@<TRIPOS>SUBSTRUCTURE
     1 1           1 GROUP             0 ****  ****    0  
@<TRIPOS>MOLECULE
Molecule Name_00020
    42    42     1     0     0
SMALL
NO_CHARGES
****
Generated from the CSD

@<TRIPOS>ATOM
     1 C1       3.5109  -0.3743  -0.0450   C.ar      1 1      0.0000
     2 C2       3.0390  -1.0358   1.0669   C.ar      1 1      0.0000
     3 C3       1.6788  -1.0219   1.3170   C.ar      1 1      0.0000
     4 C4       0.7934  -0.3573   0.4757   C.ar      1 1      0.0000
     5 C5       1.3127   0.2945  -0.6374   C.ar      1 1      0.0000
     6 C6       2.6693   0.2934  -0.9066   C.ar      1 1      0.0000
     7 H7       3.7195  -1.5567   1.7323   H         1 1      0.0000
     8 H8       1.2997  -1.5431   2.1893   H         1 1      0.0000
     9 H9       0.6429   0.8162  -1.3127   H         1 1      0.0000
    10 H10      3.0619   0.8073  -1.7778   H         1 1      0.0000
    11 N11      4.9529  -0.3813  -0.3197   N.pl3     1 1      0.0000
    12 O12      5.3557   0.2098  -1.3095   O.2       1 1      0.0000
    13 O13      5.6859  -0.9778   0.4535   O.2       1 1      0.0000
    14 CL3     -0.7083  -0.3372   0.7647   C.3       1 1      0.0000
    15 CL1     -1.5025  -0.9862  -0.4042   C.3       1 1      0.0000
    16 H16     -1.3971  -0.3537  -1.2939   H         1 1      0.0000
    17 H17     -1.0376  -1.9506  -0.6433   H         1 1      0.0000
    18 CL      -3.0016  -1.2271  -0.1536   C.3       1 1      0.0000
    19 CL2     -3.6646   0.0959   0.1837   C.3       1 1      0.0000
    20 H20     -4.7445   0.0259   0.0711   H         1 1      0.0000
    21 H21     -3.4488   0.3848   1.2102   H         1 1      0.0000
    22 H22     -3.3058   0.8855  -0.4732   H         1 1      0.0000
    23 OL2     -0.9267  -1.0413   1.9808   O.3       1 1      0.0000
    24 H24     -1.8881  -1.0098   2.2107   H         1 1      0.0000
    25 N25     -3.6275  -1.7658  -1.3326   N.3       1 1      0.0000
    26 H26     -4.6104  -1.9178  -1.1065   H         1 1      0.0000
    27 C27     -3.5875  -0.9428  -2.5426   C.3       1 1      0.0000
    28 H28     -2.5601  -0.7541  -2.8469   H         1 1      0.0000
    29 H29     -4.0985  -1.4401  -3.3643   H         1 1      0.0000
    30 H30     -4.0723   0.0163  -2.3728   H         1 1      0.0000
    31 OL1     -3.1612  -2.0795   0.9742   O.3       1 1      0.0000
    32 H32     -4.1250  -2.2138   1.1509   H         1 1      0.0000
    33 CL4     -1.0659   1.1516   0.9457   C.2       1 1      0.0000
    34 C34     -1.4964   3.1972  -0.1753   C.3       1 1      0.0000
    35 H35     -2.4634   3.3432   0.3216   H         1 1      0.0000
    36 H36     -0.7401   3.7477   0.3978   H         1 1      0.0000
    37 OL3     -1.2344   1.6679   2.0159   O.2       1 1      0.0000
    38 OL4     -1.1615   1.7787  -0.2204   O.3       1 1      0.0000
    39 C39     -1.5535   3.7026  -1.5652   C.3       1 1      0.0000
    40 H40     -2.3089   3.1694  -2.1387   H         1 1      0.0000
    41 H41     -1.8015   4.7618  -1.5805   H         1 1      0.0000
    42 H42     -0.5950   3.5716  -2.0629   H         1 1      0.0000
@<TRIPOS>BOND
     1     1     2   ar
     2     1     6   ar
     3     1    11    1
     4     2     3   ar
     5     2     7    1
     6     3     4   ar
     7     3     8    1
     8     4     5   ar
     9     4    14    1
    10     5     6   ar
    11     5     9    1
    12     6    10    1
    13    11    12    2
    14    11    13    2
    15    14    15    1
    16    14    23    1
    17    14    33    1
    18    15    16    1
    19    15    17    1
    20    15    18    1
    21    18    19    1
    22    18    25    1
    23    18    31    1
    24    19    20    1
    25    19    21    1
    26    19    22    1
    27    23    24    1
    28    25    26    1
    29    25    27    1
    30    27    28    1
    31    27    29    1
    32    27    30    1
    33    31    32    1
    34    33    37    2
    35    33    38    1
    36    34    35    1
    37    34    36    1
    38    34    38    1
    39    34    39    1
    40    39    40    1
    41    39    41    1
    42    39    42    1
@<TRIPOS>SUBSTRUCTURE
     1 1           1 GROUP             0 ****  ****    0  
@<TRIPOS>MOLECULE
Molecule Name_00021
    42    42     1     0     0
SMALL
NO_CHARGES
****
Generated from the CSD

@<TRIPOS>ATOM
     1 C1       3.4788  -0.3899  -0.0583   C.ar      1 1      0.0000
     2 C2       2.9734  -1.0815   1.0200   C.ar      1 1      0.0000
     3 C3       1.6119  -1.0319   1.2583   C.ar      1 1      0.0000
     4 C4       0.7582  -0.3023   0.4385   C.ar      1 1      0.0000
     5 C5       1.3106   0.3781  -0.6410   C.ar      1 1      0.0000
     6 C6       2.6691   0.3421  -0.8981   C.ar      1 1      0.0000
     7 H7       3.6291  -1.6532   1.6685   H         1 1      0.0000
     8 H8       1.2065  -1.5764   2.1041   H         1 1      0.0000
     9 H9       0.6658   0.9505  -1.2994   H         1 1      0.0000
    10 H10      3.0878   0.8789  -1.7429   H         1 1      0.0000
    11 N11      4.9224  -0.4343  -0.3204   N.pl3     1 1      0.0000
    12 O12      5.3551   0.1842  -1.2803   O.2       1 1      0.0000
    13 O13      5.6270  -1.0879   0.4331   O.2       1 1      0.0000
    14 CL3     -0.7449  -0.2433   0.7147   C.3       1 1      0.0000
    15 CL1     -1.5484  -0.8145  -0.4880   C.3       1 1      0.0000
    16 H16     -1.4126  -0.1487  -1.3488   H         1 1      0.0000
    17 H17     -1.1139  -1.7832  -0.7640   H         1 1      0.0000
    18 CL      -3.0573  -1.0147  -0.2611   C.3       1 1      0.0000
    19 CL2     -3.6787   0.3145   0.1268   C.3       1 1      0.0000
    20 H20     -4.7592   0.2862   0.0018   H         1 1      0.0000
    21 H21     -3.4639   0.5518   1.1666   H         1 1      0.0000
    22 H22     -3.2869   1.1188  -0.4924   H         1 1      0.0000
    23 OL2     -0.9995  -0.9906   1.8975   O.3       1 1      0.0000
    24 H24     -1.9616  -0.9362   2.1200   H         1 1      0.0000
    25 N25     -3.6888  -1.4809  -1.4677   N.3       1 1      0.0000
    26 H26     -3.5425  -0.7639  -2.1782   H         1 1      0.0000
    27 C27     -3.2050  -2.7444  -2.0269   C.3       1 1      0.0000
    28 H28     -3.3338  -3.5561  -1.3140   H         1 1      0.0000
    29 H29     -3.7507  -2.9992  -2.9330   H         1 1      0.0000
    30 H30     -2.1480  -2.6764  -2.2757   H         1 1      0.0000
    31 OL1     -3.2571  -1.9085   0.8275   O.3       1 1      0.0000
    32 H32     -4.2267  -2.0173   0.9897   H         1 1      0.0000
    33 CL4     -1.0540   1.2478   0.9561   C.2       1 1      0.0000
    34 C34     -1.4037   3.3526  -0.0801   C.3       1 1      0.0000
    35 H35     -2.3704   3.5103   0.4140   H         1 1      0.0000
    36 H36     -0.6353   3.8522   0.5228   H         1 1      0.0000
    37 OL3     -1.2161   1.7236   2.0459   O.2       1 1      0.0000
    38 OL4     -1.1164   1.9268  -0.1829   O.3       1 1      0.0000
    39 C39     -1.4294   3.9183  -1.4475   C.3       1 1      0.0000
    40 H40     -2.1963   3.4361  -2.0500   H         1 1      0.0000
    41 H41     -1.6414   4.9851  -1.4196   H         1 1      0.0000
    42 H42     -0.4707   3.7760  -1.9418   H         1 1      0.0000
@<TRIPOS>BOND
     1     1     2   ar
     2     1     6   ar
     3     1    11    1
     4     2     3   ar
     5     2     7    1
     6     3     4   ar
     7     3     8    1
     8     4     5   ar
     9     4    14    1
    10     5     6   ar
    11     5     9    1
    12     6    10    1
    13    11    12    2
    14    11    13    2
    15    14    15    1
    16    14    23    1
    17    14    33    1
    18    15    16    1
    19    15    17    1
    20    15    18    1
    21    18    19    1
    22    18    25    1
    23    18    31    1
    24    19    20    1
    25    19    21    1
    26    19    22    1
    27    23    24    1
    28    25    26    1
    29    25    27    1
    30    27    28    1
    31    27    29    1
    32    27    30    1
    33    31    32    1
    34    33    37    2
    35    33    38    1
    36    34    35    1
    37    34    36    1
    38    34    38    1
    39    34    39    1
    40    39    40    1
    41    39    41    1
    42    39    42    1
@<TRIPOS>SUBSTRUCTURE
     1 1           1 GROUP             0 ****  ****    0  
@<TRIPOS>MOLECULE
Molecule Name_00022
    42    42     1     0     0
SMALL
NO_CHARGES
****
Generated from the CSD

@<TRIPOS>ATOM
     1 C1       2.9376  -0.5665  -0.3422   C.ar      1 1      0.0000
     2 C2       2.3540  -1.3770   0.6060   C.ar      1 1      0.0000
     3 C3       1.0515  -1.1140   0.9897   C.ar      1 1      0.0000
     4 C4       0.3334  -0.0569   0.4420   C.ar      1 1      0.0000
     5 C5       0.9603   0.7337  -0.5148   C.ar      1 1      0.0000
     6 C6       2.2618   0.4888  -0.9134   C.ar      1 1      0.0000
     7 H7       2.9042  -2.2041   1.0426   H         1 1      0.0000
     8 H8       0.5847  -1.7498   1.7341   H         1 1      0.0000
     9 H9       0.4204   1.5618  -0.9618   H         1 1      0.0000
    10 H10      2.7400   1.1144  -1.6598   H         1 1      0.0000
    11 N11      4.3199  -0.8354  -0.7563   N.pl3     1 1      0.0000
    12 O12      4.8233  -0.1079  -1.5981   O.2       1 1      0.0000
    13 O13      4.9056  -1.7748  -0.2408   O.2       1 1      0.0000
    14 CL3     -1.1028   0.2344   0.8792   C.3       1 1      0.0000
    15 CL1     -2.0802   0.1119  -0.3242   C.3       1 1      0.0000
    16 H16     -3.0708   0.4612  -0.0087   H         1 1      0.0000
    17 H17     -1.7405   0.7923  -1.1148   H         1 1      0.0000
    18 CL      -2.2312  -1.2927  -0.9344   C.3       1 1      0.0000
    19 CL2     -0.9190  -1.6923  -1.5840   C.3       1 1      0.0000
    20 H20     -1.0920  -2.3688  -2.4184   H         1 1      0.0000
    21 H21     -0.3928  -0.8176  -1.9603   H         1 1      0.0000
    22 H22     -0.2719  -2.1953  -0.8684   H         1 1      0.0000
    23 OL2     -1.4411  -0.6902   1.9054   O.3       1 1      0.0000
    24 H24     -2.3542  -0.4979   2.2332   H         1 1      0.0000
    25 N25     -2.5468  -2.2537   0.0897   N.3       1 1      0.0000
    26 H26     -3.4178  -1.9509   0.5257   H         1 1      0.0000
    27 C27     -2.7394  -3.6411  -0.3358   C.3       1 1      0.0000
    28 H28     -1.8402  -4.0269  -0.8116   H         1 1      0.0000
    29 H29     -2.9717  -4.2770   0.5159   H         1 1      0.0000
    30 H30     -3.5585  -3.7159  -1.0480   H         1 1      0.0000
    31 OL1     -3.2172  -1.2592  -1.9593   O.3       1 1      0.0000
    32 H32     -3.2806  -2.1503  -2.3837   H         1 1      0.0000
    33 CL4     -1.0700   1.6665   1.4495   C.2       1 1      0.0000
    34 C34     -1.0679   3.9753   0.9057   C.3       1 1      0.0000
    35 H35     -1.9299   4.1957   1.5474   H         1 1      0.0000
    36 H36     -0.1593   4.1795   1.4854   H         1 1      0.0000
    37 OL3     -1.0266   1.9122   2.6234   O.2       1 1      0.0000
    38 OL4     -1.0954   2.5792   0.4858   O.3       1 1      0.0000
    39 C39     -1.1026   4.8230  -0.3071   C.3       1 1      0.0000
    40 H40     -2.0062   4.6350  -0.8833   H         1 1      0.0000
    41 H41     -1.0837   5.8778  -0.0410   H         1 1      0.0000
    42 H42     -0.2452   4.6189  -0.9450   H         1 1      0.0000
@<TRIPOS>BOND
     1     1     2   ar
     2     1     6   ar
     3     1    11    1
     4     2     3   ar
     5     2     7    1
     6     3     4   ar
     7     3     8    1
     8     4     5   ar
     9     4    14    1
    10     5     6   ar
    11     5     9    1
    12     6    10    1
    13    11    12    2
    14    11    13    2
    15    14    15    1
    16    14    23    1
    17    14    33    1
    18    15    16    1
    19    15    17    1
    20    15    18    1
    21    18    19    1
    22    18    25    1
    23    18    31    1
    24    19    20    1
    25    19    21    1
    26    19    22    1
    27    23    24    1
    28    25    26    1
    29    25    27    1
    30    27    28    1
    31    27    29    1
    32    27    30    1
    33    31    32    1
    34    33    37    2
    35    33    38    1
    36    34    35    1
    37    34    36    1
    38    34    38    1
    39    34    39    1
    40    39    40    1
    41    39    41    1
    42    39    42    1
@<TRIPOS>SUBSTRUCTURE
     1 1           1 GROUP             0 ****  ****    0  
@<TRIPOS>MOLECULE
Molecule Name_00023
    42    42     1     0     0
SMALL
NO_CHARGES
****
Generated from the CSD

@<TRIPOS>ATOM
     1 C1       3.0241  -0.5122  -0.3536   C.ar      1 1      0.0000
     2 C2       2.4532  -1.3787   0.5518   C.ar      1 1      0.0000
     3 C3       1.1331  -1.1814   0.9142   C.ar      1 1      0.0000
     4 C4       0.3851  -0.1344   0.3874   C.ar      1 1      0.0000
     5 C5       1.0003   0.7144  -0.5262   C.ar      1 1      0.0000
     6 C6       2.3190   0.5355  -0.9028   C.ar      1 1      0.0000
     7 H7       3.0266  -2.1986   0.9717   H         1 1      0.0000
     8 H8       0.6761  -1.8615   1.6247   H         1 1      0.0000
     9 H9       0.4373   1.5360  -0.9563   H         1 1      0.0000
    10 H10      2.7877   1.2060  -1.6155   H         1 1      0.0000
    11 N11      4.4249  -0.7112  -0.7447   N.pl3     1 1      0.0000
    12 O12      4.9167   0.0655  -1.5485   O.2       1 1      0.0000
    13 O13      5.0366  -1.6447  -0.2491   O.2       1 1      0.0000
    14 CL3     -1.0709   0.0840   0.8011   C.3       1 1      0.0000
    15 CL1     -2.0156  -0.0281  -0.4291   C.3       1 1      0.0000
    16 H16     -3.0221   0.2869  -0.1285   H         1 1      0.0000
    17 H17     -1.6746   0.6832  -1.1915   H         1 1      0.0000
    18 CL      -2.1155  -1.4178  -1.0824   C.3       1 1      0.0000
    19 CL2     -0.7658  -1.7844  -1.6719   C.3       1 1      0.0000
    20 H20     -0.8854  -2.4462  -2.5271   H         1 1      0.0000
    21 H21     -0.2353  -0.8943  -2.0037   H         1 1      0.0000
    22 H22     -0.1478  -2.2920  -0.9342   H         1 1      0.0000
    23 OL2     -1.3955  -0.8928   1.7824   O.3       1 1      0.0000
    24 H24     -2.2717  -0.6748   2.1860   H         1 1      0.0000
    25 N25     -2.4715  -2.4092  -0.1015   N.3       1 1      0.0000
    26 H26     -1.7410  -2.4015   0.6103   H         1 1      0.0000
    27 C27     -3.7484  -2.2312   0.5920   C.3       1 1      0.0000
    28 H28     -4.5812  -2.3354  -0.1005   H         1 1      0.0000
    29 H29     -3.8669  -2.9733   1.3787   H         1 1      0.0000
    30 H30     -3.8065  -1.2440   1.0458   H         1 1      0.0000
    31 OL1     -3.0468  -1.3691  -2.1567   O.3       1 1      0.0000
    32 H32     -3.0921  -2.2556  -2.5928   H         1 1      0.0000
    33 CL4     -1.1071   1.4926   1.4271   C.2       1 1      0.0000
    34 C34     -1.1818   3.8196   0.9733   C.3       1 1      0.0000
    35 H35     -2.0666   3.9816   1.6013   H         1 1      0.0000
    36 H36     -0.2957   4.0349   1.5831   H         1 1      0.0000
    37 OL3     -1.1011   1.6930   2.6104   O.2       1 1      0.0000
    38 OL4     -1.1452   2.4411   0.4992   O.3       1 1      0.0000
    39 C39     -1.2207   4.7128  -0.2062   C.3       1 1      0.0000
    40 H40     -2.1024   4.5137  -0.8118   H         1 1      0.0000
    41 H41     -1.2490   5.7561   0.1009   H         1 1      0.0000
    42 H42     -0.3412   4.5667  -0.8298   H         1 1      0.0000
@<TRIPOS>BOND
     1     1     2   ar
     2     1     6   ar
     3     1    11    1
     4     2     3   ar
     5     2     7    1
     6     3     4   ar
     7     3     8    1
     8     4     5   ar
     9     4    14    1
    10     5     6   ar
    11     5     9    1
    12     6    10    1
    13    11    12    2
    14    11    13    2
    15    14    15    1
    16    14    23    1
    17    14    33    1
    18    15    16    1
    19    15    17    1
    20    15    18    1
    21    18    19    1
    22    18    25    1
    23    18    31    1
    24    19    20    1
    25    19    21    1
    26    19    22    1
    27    23    24    1
    28    25    26    1
    29    25    27    1
    30    27    28    1
    31    27    29    1
    32    27    30    1
    33    31    32    1
    34    33    37    2
    35    33    38    1
    36    34    35    1
    37    34    36    1
    38    34    38    1
    39    34    39    1
    40    39    40    1
    41    39    41    1
    42    39    42    1
@<TRIPOS>SUBSTRUCTURE
     1 1           1 GROUP             0 ****  ****    0  
@<TRIPOS>MOLECULE
Molecule Name_00024
    42    42     1     0     0
SMALL
NO_CHARGES
****
Generated from the CSD

@<TRIPOS>ATOM
     1 C1       3.6274  -0.4370  -0.0974   C.ar      1 1      0.0000
     2 C2       3.0804  -0.5375   1.1625   C.ar      1 1      0.0000
     3 C3       1.7084  -0.4268   1.2985   C.ar      1 1      0.0000
     4 C4       0.8851  -0.2160   0.1981   C.ar      1 1      0.0000
     5 C5       1.4793  -0.1243  -1.0556   C.ar      1 1      0.0000
     6 C6       2.8490  -0.2322  -1.2148   C.ar      1 1      0.0000
     7 H7       3.7120  -0.7001   2.0296   H         1 1      0.0000
     8 H8       1.2704  -0.5076   2.2874   H         1 1      0.0000
     9 H9       0.8590   0.0346  -1.9314   H         1 1      0.0000
    10 H10      3.3003  -0.1571  -2.1986   H         1 1      0.0000
    11 N11      5.0824  -0.5517  -0.2537   N.pl3     1 1      0.0000
    12 O12      5.5522  -0.4604  -1.3772   O.2       1 1      0.0000
    13 O13      5.7589  -0.7333   0.7466   O.2       1 1      0.0000
    14 CL3     -0.6301  -0.0838   0.3577   C.3       1 1      0.0000
    15 CL1     -1.3643  -1.2389  -0.3805   C.3       1 1      0.0000
    16 H16     -1.1685  -1.1486  -1.4558   H         1 1      0.0000
    17 H17     -0.9241  -2.1900  -0.0563   H         1 1      0.0000
    18 CL      -2.8864  -1.3197  -0.1683   C.3       1 1      0.0000
    19 CL2     -3.5167  -0.0125  -0.6126   C.3       1 1      0.0000
    20 H20     -4.5736  -0.1488  -0.8318   H         1 1      0.0000
    21 H21     -3.4265   0.7431   0.1650   H         1 1      0.0000
    22 H22     -3.0304   0.3649  -1.5098   H         1 1      0.0000
    23 OL2     -0.9242  -0.1013   1.7490   O.3       1 1      0.0000
    24 H24     -1.8966   0.0217   1.8810   H         1 1      0.0000
    25 N25     -3.4466  -2.3884  -0.9530   N.3       1 1      0.0000
    26 H26     -2.9722  -3.2465  -0.6717   H         1 1      0.0000
    27 C27     -4.8844  -2.6293  -0.8196   C.3       1 1      0.0000
    28 H28     -5.4541  -1.8540  -1.3277   H         1 1      0.0000
    29 H29     -5.1565  -3.5892  -1.2535   H         1 1      0.0000
    30 H30     -5.1789  -2.6351   0.2277   H         1 1      0.0000
    31 OL1     -3.1627  -1.4722   1.2188   O.3       1 1      0.0000
    32 H32     -4.1369  -1.3941   1.3704   H         1 1      0.0000
    33 CL4     -0.9814   1.2941  -0.2383   C.2       1 1      0.0000
    34 C34     -1.6620   3.5109   0.2604   C.3       1 1      0.0000
    35 H35     -0.8245   3.9622  -0.2860   H         1 1      0.0000
    36 H36     -2.5217   3.4713  -0.4199   H         1 1      0.0000
    37 OL3     -0.9580   1.5337  -1.4141   O.2       1 1      0.0000
    38 OL4     -1.3087   2.1681   0.7057   O.3       1 1      0.0000
    39 C39     -1.9907   4.3218   1.4541   C.3       1 1      0.0000
    40 H40     -1.1398   4.3757   2.1300   H         1 1      0.0000
    41 H41     -2.2615   5.3361   1.1687   H         1 1      0.0000
    42 H42     -2.8276   3.8875   1.9968   H         1 1      0.0000
@<TRIPOS>BOND
     1     1     2   ar
     2     1     6   ar
     3     1    11    1
     4     2     3   ar
     5     2     7    1
     6     3     4   ar
     7     3     8    1
     8     4     5   ar
     9     4    14    1
    10     5     6   ar
    11     5     9    1
    12     6    10    1
    13    11    12    2
    14    11    13    2
    15    14    15    1
    16    14    23    1
    17    14    33    1
    18    15    16    1
    19    15    17    1
    20    15    18    1
    21    18    19    1
    22    18    25    1
    23    18    31    1
    24    19    20    1
    25    19    21    1
    26    19    22    1
    27    23    24    1
    28    25    26    1
    29    25    27    1
    30    27    28    1
    31    27    29    1
    32    27    30    1
    33    31    32    1
    34    33    37    2
    35    33    38    1
    36    34    35    1
    37    34    36    1
    38    34    38    1
    39    34    39    1
    40    39    40    1
    41    39    41    1
    42    39    42    1
@<TRIPOS>SUBSTRUCTURE
     1 1           1 GROUP             0 ****  ****    0  
@<TRIPOS>MOLECULE
Molecule Name_00025
    42    42     1     0     0
SMALL
NO_CHARGES
****
Generated from the CSD

@<TRIPOS>ATOM
     1 C1       3.5446  -0.5178  -0.0778   C.ar      1 1      0.0000
     2 C2       3.0314  -0.5003   1.2000   C.ar      1 1      0.0000
     3 C3       1.6657  -0.3531   1.3623   C.ar      1 1      0.0000
     4 C4       0.8155  -0.2219   0.2699   C.ar      1 1      0.0000
     5 C5       1.3759  -0.2485  -1.0023   C.ar      1 1      0.0000
     6 C6       2.7387  -0.3947  -1.1878   C.ar      1 1      0.0000
     7 H7       3.6842  -0.5999   2.0609   H         1 1      0.0000
     8 H8       1.2542  -0.3412   2.3656   H         1 1      0.0000
     9 H9       0.7341  -0.1534  -1.8718   H         1 1      0.0000
    10 H10      3.1635  -0.4122  -2.1860   H         1 1      0.0000
    11 N11      4.9926  -0.6722  -0.2622   N.pl3     1 1      0.0000
    12 O12      5.4323  -0.6858  -1.4014   O.2       1 1      0.0000
    13 O13      5.6937  -0.7803   0.7318   O.2       1 1      0.0000
    14 CL3     -0.6924  -0.0486   0.4576   C.3       1 1      0.0000
    15 CL1     -1.4654  -1.2486  -0.1595   C.3       1 1      0.0000
    16 H16     -1.2972  -1.2545  -1.2431   H         1 1      0.0000
    17 H17     -1.0326  -2.1766   0.2342   H         1 1      0.0000
    18 CL      -2.9823  -1.2820   0.0976   C.3       1 1      0.0000
    19 CL2     -3.6034  -0.0089  -0.4474   C.3       1 1      0.0000
    20 H20     -4.6658  -0.1481  -0.6361   H         1 1      0.0000
    21 H21     -3.4893   0.8095   0.2604   H         1 1      0.0000
    22 H22     -3.1285   0.2826  -1.3818   H         1 1      0.0000
    23 OL2     -0.9477   0.0578   1.8525   O.3       1 1      0.0000
    24 H24     -1.9140   0.2095   1.9992   H         1 1      0.0000
    25 N25     -3.5804  -2.4067  -0.5726   N.3       1 1      0.0000
    26 H26     -4.5773  -2.3873  -0.3580   H         1 1      0.0000
    27 C27     -3.4559  -2.4563  -2.0304   C.3       1 1      0.0000
    28 H28     -2.4098  -2.4929  -2.3272   H         1 1      0.0000
    29 H29     -3.9527  -3.3378  -2.4301   H         1 1      0.0000
    30 H30     -3.9069  -1.5772  -2.4860   H         1 1      0.0000
    31 OL1     -3.2238  -1.3037   1.4994   O.3       1 1      0.0000
    32 H32     -4.1988  -1.2993   1.6650   H         1 1      0.0000
    33 CL4     -1.0378   1.2798  -0.2447   C.2       1 1      0.0000
    34 C34     -1.6707   3.5426   0.0802   C.3       1 1      0.0000
    35 H35     -0.8411   3.9311  -0.5233   H         1 1      0.0000
    36 H36     -2.5485   3.4607  -0.5726   H         1 1      0.0000
    37 OL3     -1.0416   1.4185  -1.4368   O.2       1 1      0.0000
    38 OL4     -1.3266   2.2363   0.6293   O.3       1 1      0.0000
    39 C39     -1.9554   4.4574   1.2083   C.3       1 1      0.0000
    40 H40     -1.0863   4.5533   1.8558   H         1 1      0.0000
    41 H41     -2.2179   5.4485   0.8444   H         1 1      0.0000
    42 H42     -2.7844   4.0854   1.8067   H         1 1      0.0000
@<TRIPOS>BOND
     1     1     2   ar
     2     1     6   ar
     3     1    11    1
     4     2     3   ar
     5     2     7    1
     6     3     4   ar
     7     3     8    1
     8     4     5   ar
     9     4    14    1
    10     5     6   ar
    11     5     9    1
    12     6    10    1
    13    11    12    2
    14    11    13    2
    15    14    15    1
    16    14    23    1
    17    14    33    1
    18    15    16    1
    19    15    17    1
    20    15    18    1
    21    18    19    1
    22    18    25    1
    23    18    31    1
    24    19    20    1
    25    19    21    1
    26    19    22    1
    27    23    24    1
    28    25    26    1
    29    25    27    1
    30    27    28    1
    31    27    29    1
    32    27    30    1
    33    31    32    1
    34    33    37    2
    35    33    38    1
    36    34    35    1
    37    34    36    1
    38    34    38    1
    39    34    39    1
    40    39    40    1
    41    39    41    1
    42    39    42    1
@<TRIPOS>SUBSTRUCTURE
     1 1           1 GROUP             0 ****  ****    0  
@<TRIPOS>MOLECULE
Molecule Name_00026
    42    42     1     0     0
SMALL
NO_CHARGES
****
Generated from the CSD

@<TRIPOS>ATOM
     1 C1       3.5216  -0.5222  -0.1062   C.ar      1 1      0.0000
     2 C2       2.9699  -0.6156   1.1522   C.ar      1 1      0.0000
     3 C3       1.6034  -0.4518   1.2889   C.ar      1 1      0.0000
     4 C4       0.7901  -0.1952   0.1907   C.ar      1 1      0.0000
     5 C5       1.3887  -0.1126  -1.0616   C.ar      1 1      0.0000
     6 C6       2.7530  -0.2732  -1.2214   C.ar      1 1      0.0000
     7 H7       3.5937  -0.8136   2.0176   H         1 1      0.0000
     8 H8       1.1616  -0.5267   2.2766   H         1 1      0.0000
     9 H9       0.7760   0.0815  -1.9357   H         1 1      0.0000
    10 H10      3.2079  -0.2047  -2.2041   H         1 1      0.0000
    11 N11      4.9711  -0.6932  -0.2633   N.pl3     1 1      0.0000
    12 O12      5.4451  -0.6075  -1.3854   O.2       1 1      0.0000
    13 O13      5.6388  -0.9136   0.7351   O.2       1 1      0.0000
    14 CL3     -0.7188  -0.0044   0.3512   C.3       1 1      0.0000
    15 CL1     -1.4979  -1.1203  -0.4011   C.3       1 1      0.0000
    16 H16     -1.2967  -1.0258  -1.4751   H         1 1      0.0000
    17 H17     -1.0973  -2.0921  -0.0872   H         1 1      0.0000
    18 CL      -3.0224  -1.1415  -0.1919   C.3       1 1      0.0000
    19 CL2     -3.5991   0.1928  -0.6282   C.3       1 1      0.0000
    20 H20     -4.6579   0.0981  -0.8598   H         1 1      0.0000
    21 H21     -3.4894   0.9362   0.1586   H         1 1      0.0000
    22 H22     -3.0896   0.5614  -1.5161   H         1 1      0.0000
    23 OL2     -1.0145  -0.0267   1.7421   O.3       1 1      0.0000
    24 H24     -1.9814   0.1335   1.8751   H         1 1      0.0000
    25 N25     -3.6234  -2.1817  -0.9848   N.3       1 1      0.0000
    26 H26     -3.4156  -1.9714  -1.9611   H         1 1      0.0000
    27 C27     -3.1740  -3.5525  -0.7358   C.3       1 1      0.0000
    28 H28     -3.3687  -3.8409   0.2950   H         1 1      0.0000
    29 H29     -3.6925  -4.2527  -1.3874   H         1 1      0.0000
    30 H30     -2.1056  -3.6472  -0.9183   H         1 1      0.0000
    31 OL1     -3.3072  -1.2923   1.1937   O.3       1 1      0.0000
    32 H32     -4.2865  -1.2804   1.3311   H         1 1      0.0000
    33 CL4     -1.0141   1.3935  -0.2284   C.2       1 1      0.0000
    34 C34     -1.6082   3.6291   0.2964   C.3       1 1      0.0000
    35 H35     -0.7523   4.0538  -0.2426   H         1 1      0.0000
    36 H36     -2.4670   3.6318  -0.3861   H         1 1      0.0000
    37 OL3     -0.9782   1.6465  -1.4010   O.2       1 1      0.0000
    38 OL4     -1.3091   2.2680   0.7257   O.3       1 1      0.0000
    39 C39     -1.9078   4.4375   1.4994   C.3       1 1      0.0000
    40 H40     -1.0571   4.4496   2.1776   H         1 1      0.0000
    41 H41     -2.1378   5.4652   1.2260   H         1 1      0.0000
    42 H42     -2.7625   4.0298   2.0350   H         1 1      0.0000
@<TRIPOS>BOND
     1     1     2   ar
     2     1     6   ar
     3     1    11    1
     4     2     3   ar
     5     2     7    1
     6     3     4   ar
     7     3     8    1
     8     4     5   ar
     9     4    14    1
    10     5     6   ar
    11     5     9    1
    12     6    10    1
    13    11    12    2
    14    11    13    2
    15    14    15    1
    16    14    23    1
    17    14    33    1
    18    15    16    1
    19    15    17    1
    20    15    18    1
    21    18    19    1
    22    18    25    1
    23    18    31    1
    24    19    20    1
    25    19    21    1
    26    19    22    1
    27    23    24    1
    28    25    26    1
    29    25    27    1
    30    27    28    1
    31    27    29    1
    32    27    30    1
    33    31    32    1
    34    33    37    2
    35    33    38    1
    36    34    35    1
    37    34    36    1
    38    34    38    1
    39    34    39    1
    40    39    40    1
    41    39    41    1
    42    39    42    1
@<TRIPOS>SUBSTRUCTURE
     1 1           1 GROUP             0 ****  ****    0  
@<TRIPOS>MOLECULE
Molecule Name_00027
    42    42     1     0     0
SMALL
NO_CHARGES
****
Generated from the CSD

@<TRIPOS>ATOM
     1 C1       3.5776  -0.3489  -0.2634   C.ar      1 1      0.0000
     2 C2       3.0288   0.5330   0.6408   C.ar      1 1      0.0000
     3 C3       1.6536   0.5616   0.7855   C.ar      1 1      0.0000
     4 C4       0.8283  -0.2734   0.0404   C.ar      1 1      0.0000
     5 C5       1.4250  -1.1507  -0.8583   C.ar      1 1      0.0000
     6 C6       2.7979  -1.1961  -1.0191   C.ar      1 1      0.0000
     7 H7       3.6615   1.1912   1.2270   H         1 1      0.0000
     8 H8       1.2146   1.2517   1.4977   H         1 1      0.0000
     9 H9       0.8041  -1.8167  -1.4481   H         1 1      0.0000
    10 H10      3.2509  -1.8843  -1.7251   H         1 1      0.0000
    11 N11      5.0359  -0.3872  -0.4264   N.pl3     1 1      0.0000
    12 O12      5.5072  -1.1746  -1.2321   O.2       1 1      0.0000
    13 O13      5.7134   0.3701   0.2509   O.2       1 1      0.0000
    14 CL3     -0.6922  -0.2285   0.1981   C.3       1 1      0.0000
    15 CL1     -1.3868  -1.0459  -0.9278   C.3       1 1      0.0000
    16 H16     -1.1212  -0.6053  -1.8963   H         1 1      0.0000
    17 H17     -0.9765  -2.0633  -0.9184   H         1 1      0.0000
    18 CL      -2.9200  -1.1481  -0.8439   C.3       1 1      0.0000
    19 CL2     -3.4376  -1.8404  -2.0914   C.3       1 1      0.0000
    20 H20     -4.5240  -1.8982  -2.0778   H         1 1      0.0000
    21 H21     -3.1382  -1.2980  -2.9858   H         1 1      0.0000
    22 H22     -3.0452  -2.8527  -2.1616   H         1 1      0.0000
    23 OL2     -1.0123  -0.7544   1.4801   O.3       1 1      0.0000
    24 H24     -1.7276  -0.2082   1.8901   H         1 1      0.0000
    25 N25     -3.3093  -1.9230   0.3050   N.3       1 1      0.0000
    26 H26     -2.9380  -1.4465   1.1269   H         1 1      0.0000
    27 C27     -4.7443  -2.1082   0.5279   C.3       1 1      0.0000
    28 H28     -5.2008  -2.6290  -0.3112   H         1 1      0.0000
    29 H29     -4.9224  -2.6935   1.4276   H         1 1      0.0000
    30 H30     -5.2437  -1.1486   0.6435   H         1 1      0.0000
    31 OL1     -3.4804   0.1593  -0.8226   O.3       1 1      0.0000
    32 H32     -4.4671   0.0938  -0.8090   H         1 1      0.0000
    33 CL4     -1.0619   1.2670   0.1342   C.2       1 1      0.0000
    34 C34     -1.4284   3.2345   1.4075   C.3       1 1      0.0000
    35 H35     -0.7085   3.8245   0.8270   H         1 1      0.0000
    36 H36     -2.4235   3.4067   0.9791   H         1 1      0.0000
    37 OL3     -1.2946   1.8497  -0.8889   O.2       1 1      0.0000
    38 OL4     -1.0891   1.8178   1.3417   O.3       1 1      0.0000
    39 C39     -1.4037   3.6498   2.8278   C.3       1 1      0.0000
    40 H40     -0.4170   3.4926   3.2585   H         1 1      0.0000
    41 H41     -1.6520   4.7046   2.9256   H         1 1      0.0000
    42 H42     -2.1227   3.0770   3.4097   H         1 1      0.0000
@<TRIPOS>BOND
     1     1     2   ar
     2     1     6   ar
     3     1    11    1
     4     2     3   ar
     5     2     7    1
     6     3     4   ar
     7     3     8    1
     8     4     5   ar
     9     4    14    1
    10     5     6   ar
    11     5     9    1
    12     6    10    1
    13    11    12    2
    14    11    13    2
    15    14    15    1
    16    14    23    1
    17    14    33    1
    18    15    16    1
    19    15    17    1
    20    15    18    1
    21    18    19    1
    22    18    25    1
    23    18    31    1
    24    19    20    1
    25    19    21    1
    26    19    22    1
    27    23    24    1
    28    25    26    1
    29    25    27    1
    30    27    28    1
    31    27    29    1
    32    27    30    1
    33    31    32    1
    34    33    37    2
    35    33    38    1
    36    34    35    1
    37    34    36    1
    38    34    38    1
    39    34    39    1
    40    39    40    1
    41    39    41    1
    42    39    42    1
@<TRIPOS>SUBSTRUCTURE
     1 1           1 GROUP             0 ****  ****    0  
@<TRIPOS>MOLECULE
Molecule Name_00028
    42    42     1     0     0
SMALL
NO_CHARGES
****
Generated from the CSD

@<TRIPOS>ATOM
     1 C1       3.4862  -0.4383  -0.2655   C.ar      1 1      0.0000
     2 C2       2.9736   0.4695   0.6343   C.ar      1 1      0.0000
     3 C3       1.6008   0.5526   0.7806   C.ar      1 1      0.0000
     4 C4       0.7425  -0.2536   0.0412   C.ar      1 1      0.0000
     5 C5       1.3031  -1.1587  -0.8532   C.ar      1 1      0.0000
     6 C6       2.6730  -1.2586  -1.0154   C.ar      1 1      0.0000
     7 H7       3.6324   1.1057   1.2160   H         1 1      0.0000
     8 H8       1.1901   1.2634   1.4894   H         1 1      0.0000
     9 H9       0.6558  -1.8032  -1.4385   H         1 1      0.0000
    10 H10      3.0977  -1.9679  -1.7180   H         1 1      0.0000
    11 N11      4.9417  -0.5344  -0.4300   N.pl3     1 1      0.0000
    12 O12      5.3807  -1.3442  -1.2318   O.2       1 1      0.0000
    13 O13      5.6493   0.1996   0.2421   O.2       1 1      0.0000
    14 CL3     -0.7749  -0.1484   0.2005   C.3       1 1      0.0000
    15 CL1     -1.5026  -0.9256  -0.9329   C.3       1 1      0.0000
    16 H16     -1.2031  -0.5002  -1.8984   H         1 1      0.0000
    17 H17     -1.1497  -1.9642  -0.9203   H         1 1      0.0000
    18 CL      -3.0399  -0.9422  -0.8645   C.3       1 1      0.0000
    19 CL2     -3.5795  -1.6927  -2.0683   C.3       1 1      0.0000
    20 H20     -4.6668  -1.7262  -2.0463   H         1 1      0.0000
    21 H21     -3.2740  -1.2085  -2.9934   H         1 1      0.0000
    22 H22     -3.2091  -2.7156  -2.0828   H         1 1      0.0000
    23 OL2     -1.1157  -0.6737   1.4774   O.3       1 1      0.0000
    24 H24     -2.0899  -0.5819   1.6213   H         1 1      0.0000
    25 N25     -3.4820  -1.6132   0.3297   N.3       1 1      0.0000
    26 H26     -4.5016  -1.5828   0.3299   H         1 1      0.0000
    27 C27     -3.0944  -3.0161   0.4873   C.3       1 1      0.0000
    28 H28     -2.0113  -3.1184   0.4954   H         1 1      0.0000
    29 H29     -3.4800  -3.4201   1.4211   H         1 1      0.0000
    30 H30     -3.4857  -3.6185  -0.3298   H         1 1      0.0000
    31 OL1     -3.5309   0.3907  -0.9426   O.3       1 1      0.0000
    32 H32     -4.5196   0.3784  -0.9243   H         1 1      0.0000
    33 CL4     -1.0835   1.3614   0.1519   C.2       1 1      0.0000
    34 C34     -1.4198   3.3190   1.4484   C.3       1 1      0.0000
    35 H35     -0.6565   3.8902   0.9058   H         1 1      0.0000
    36 H36     -2.3909   3.5381   0.9877   H         1 1      0.0000
    37 OL3     -1.2553   1.9708  -0.8676   O.2       1 1      0.0000
    38 OL4     -1.1338   1.8914   1.3679   O.3       1 1      0.0000
    39 C39     -1.4314   3.7079   2.8764   C.3       1 1      0.0000
    40 H40     -0.4682   3.5040   3.3395   H         1 1      0.0000
    41 H41     -1.6419   4.7698   2.9853   H         1 1      0.0000
    42 H42     -2.1932   3.1538   3.4209   H         1 1      0.0000
@<TRIPOS>BOND
     1     1     2   ar
     2     1     6   ar
     3     1    11    1
     4     2     3   ar
     5     2     7    1
     6     3     4   ar
     7     3     8    1
     8     4     5   ar
     9     4    14    1
    10     5     6   ar
    11     5     9    1
    12     6    10    1
    13    11    12    2
    14    11    13    2
    15    14    15    1
    16    14    23    1
    17    14    33    1
    18    15    16    1
    19    15    17    1
    20    15    18    1
    21    18    19    1
    22    18    25    1
    23    18    31    1
    24    19    20    1
    25    19    21    1
    26    19    22    1
    27    23    24    1
    28    25    26    1
    29    25    27    1
    30    27    28    1
    31    27    29    1
    32    27    30    1
    33    31    32    1
    34    33    37    2
    35    33    38    1
    36    34    35    1
    37    34    36    1
    38    34    38    1
    39    34    39    1
    40    39    40    1
    41    39    41    1
    42    39    42    1
@<TRIPOS>SUBSTRUCTURE
     1 1           1 GROUP             0 ****  ****    0  
@<TRIPOS>MOLECULE
Molecule Name_00029
    42    42     1     0     0
SMALL
NO_CHARGES
****
Generated from the CSD

@<TRIPOS>ATOM
     1 C1       3.6013  -0.3572  -0.2497   C.ar      1 1      0.0000
     2 C2       3.0354   0.5732   0.5933   C.ar      1 1      0.0000
     3 C3       1.6625   0.5657   0.7604   C.ar      1 1      0.0000
     4 C4       0.8561  -0.3526   0.0973   C.ar      1 1      0.0000
     5 C5       1.4697  -1.2764  -0.7415   C.ar      1 1      0.0000
     6 C6       2.8407  -1.2871  -0.9232   C.ar      1 1      0.0000
     7 H7       3.6533   1.2964   1.1153   H         1 1      0.0000
     8 H8       1.2103   1.2938   1.4249   H         1 1      0.0000
     9 H9       0.8639  -2.0072  -1.2667   H         1 1      0.0000
    10 H10      3.3070  -2.0123  -1.5819   H         1 1      0.0000
    11 N11      5.0574  -0.3580  -0.4356   N.pl3     1 1      0.0000
    12 O12      5.5439  -1.1893  -1.1864   O.2       1 1      0.0000
    13 O13      5.7178   0.4725   0.1686   O.2       1 1      0.0000
    14 CL3     -0.6624  -0.3477   0.2786   C.3       1 1      0.0000
    15 CL1     -1.3460  -1.2612  -0.7782   C.3       1 1      0.0000
    16 H16     -1.0987  -0.8862  -1.7786   H         1 1      0.0000
    17 H17     -0.9112  -2.2652  -0.6988   H         1 1      0.0000
    18 CL      -2.8755  -1.3929  -0.6723   C.3       1 1      0.0000
    19 CL2     -3.2217  -2.0968   0.6270   C.3       1 1      0.0000
    20 H20     -4.0686  -2.7658   0.4894   H         1 1      0.0000
    21 H21     -2.3789  -2.6856   0.9829   H         1 1      0.0000
    22 H22     -3.4814  -1.3755   1.3990   H         1 1      0.0000
    23 OL2     -0.9444  -0.7972   1.5981   O.3       1 1      0.0000
    24 H24     -1.8094  -0.4212   1.8955   H         1 1      0.0000
    25 N25     -3.4922  -0.0922  -0.6671   N.3       1 1      0.0000
    26 H26     -3.2261   0.3684  -1.5374   H         1 1      0.0000
    27 C27     -4.9533  -0.0485  -0.5877   C.3       1 1      0.0000
    28 H28     -5.3044  -0.5264   0.3245   H         1 1      0.0000
    29 H29     -5.3091   0.9797  -0.5902   H         1 1      0.0000
    30 H30     -5.4012  -0.5642  -1.4345   H         1 1      0.0000
    31 OL1     -3.3544  -2.2081  -1.7353   O.3       1 1      0.0000
    32 H32     -4.3311  -2.3316  -1.6405   H         1 1      0.0000
    33 CL4     -1.0842   1.1270   0.1224   C.2       1 1      0.0000
    34 C34     -1.5340   3.1520   1.2727   C.3       1 1      0.0000
    35 H35     -0.8291   3.7322   0.6645   H         1 1      0.0000
    36 H36     -2.5298   3.2626   0.8261   H         1 1      0.0000
    37 OL3     -1.3261   1.6393  -0.9357   O.2       1 1      0.0000
    38 OL4     -1.1441   1.7471   1.2946   O.3       1 1      0.0000
    39 C39     -1.5396   3.6515   2.6660   C.3       1 1      0.0000
    40 H40     -0.5527   3.5556   3.1140   H         1 1      0.0000
    41 H41     -1.8261   4.7006   2.6985   H         1 1      0.0000
    42 H42     -2.2442   3.0886   3.2746   H         1 1      0.0000
@<TRIPOS>BOND
     1     1     2   ar
     2     1     6   ar
     3     1    11    1
     4     2     3   ar
     5     2     7    1
     6     3     4   ar
     7     3     8    1
     8     4     5   ar
     9     4    14    1
    10     5     6   ar
    11     5     9    1
    12     6    10    1
    13    11    12    2
    14    11    13    2
    15    14    15    1
    16    14    23    1
    17    14    33    1
    18    15    16    1
    19    15    17    1
    20    15    18    1
    21    18    19    1
    22    18    25    1
    23    18    31    1
    24    19    20    1
    25    19    21    1
    26    19    22    1
    27    23    24    1
    28    25    26    1
    29    25    27    1
    30    27    28    1
    31    27    29    1
    32    27    30    1
    33    31    32    1
    34    33    37    2
    35    33    38    1
    36    34    35    1
    37    34    36    1
    38    34    38    1
    39    34    39    1
    40    39    40    1
    41    39    41    1
    42    39    42    1
@<TRIPOS>SUBSTRUCTURE
     1 1           1 GROUP             0 ****  ****    0  
@<TRIPOS>MOLECULE
Molecule Name_00030
    42    42     1     0     0
SMALL
NO_CHARGES
****
Generated from the CSD

@<TRIPOS>ATOM
     1 C1       3.5202  -0.2681  -0.2467   C.ar      1 1      0.0000
     2 C2       2.7163  -0.2349  -1.3645   C.ar      1 1      0.0000
     3 C3       1.3441  -0.2257  -1.1922   C.ar      1 1      0.0000
     4 C4       0.7720  -0.2517   0.0748   C.ar      1 1      0.0000
     5 C5       1.6209  -0.2812   1.1756   C.ar      1 1      0.0000
     6 C6       2.9959  -0.2908   1.0265   C.ar      1 1      0.0000
     7 H7       3.1502  -0.2163  -2.3588   H         1 1      0.0000
     8 H8       0.7049  -0.1969  -2.0679   H         1 1      0.0000
     9 H9       1.2002  -0.2965   2.1755   H         1 1      0.0000
    10 H10      3.6473  -0.3156   1.8939   H         1 1      0.0000
    11 N11      4.9780  -0.2793  -0.4174   N.pl3     1 1      0.0000
    12 O12      5.6772  -0.3088   0.5833   O.2       1 1      0.0000
    13 O13      5.4274  -0.2587  -1.5527   O.2       1 1      0.0000
    14 CL3     -0.7465  -0.2523   0.2572   C.3       1 1      0.0000
    15 CL1     -1.4395  -1.0269  -0.8995   C.3       1 1      0.0000
    16 H16     -1.2376  -0.5044  -1.8423   H         1 1      0.0000
    17 H17     -0.9738  -2.0169  -0.9790   H         1 1      0.0000
    18 CL      -2.9602  -1.2232  -0.7682   C.3       1 1      0.0000
    19 CL2     -3.4901  -1.8438  -2.0478   C.3       1 1      0.0000
    20 H20     -4.5696  -1.9701  -1.9969   H         1 1      0.0000
    21 H21     -3.2626  -1.2137  -2.9051   H         1 1      0.0000
    22 H22     -3.0422  -2.8208  -2.2169   H         1 1      0.0000
    23 OL2     -1.0334  -0.8518   1.5145   O.3       1 1      0.0000
    24 H24     -1.7648  -0.3542   1.9566   H         1 1      0.0000
    25 N25     -3.2595  -2.1070   0.3278   N.3       1 1      0.0000
    26 H26     -2.8786  -1.6775   1.1710   H         1 1      0.0000
    27 C27     -4.6721  -2.3880   0.5899   C.3       1 1      0.0000
    28 H28     -5.1376  -2.8611  -0.2723   H         1 1      0.0000
    29 H29     -4.7809  -3.0551   1.4424   H         1 1      0.0000
    30 H30     -5.2142  -1.4699   0.8065   H         1 1      0.0000
    31 OL1     -3.5894   0.0442  -0.6210   O.3       1 1      0.0000
    32 H32     -4.5698  -0.0785  -0.5779   H         1 1      0.0000
    33 CL4     -1.1525   1.2350   0.2772   C.2       1 1      0.0000
    34 C34     -1.5110   3.1334   1.6534   C.3       1 1      0.0000
    35 H35     -2.3068   3.3918   0.9439   H         1 1      0.0000
    36 H36     -1.8907   3.3238   2.6648   H         1 1      0.0000
    37 OL3     -1.4404   1.8573  -0.7079   O.2       1 1      0.0000
    38 OL4     -1.1425   1.7299   1.5088   O.3       1 1      0.0000
    39 C39     -0.3079   3.9557   1.3949   C.3       1 1      0.0000
    40 H40      0.0698   3.7814   0.3896   H         1 1      0.0000
    41 H41     -0.5366   5.0150   1.4921   H         1 1      0.0000
    42 H42      0.4837   3.7138   2.1011   H         1 1      0.0000
@<TRIPOS>BOND
     1     1     2   ar
     2     1     6   ar
     3     1    11    1
     4     2     3   ar
     5     2     7    1
     6     3     4   ar
     7     3     8    1
     8     4     5   ar
     9     4    14    1
    10     5     6   ar
    11     5     9    1
    12     6    10    1
    13    11    12    2
    14    11    13    2
    15    14    15    1
    16    14    23    1
    17    14    33    1
    18    15    16    1
    19    15    17    1
    20    15    18    1
    21    18    19    1
    22    18    25    1
    23    18    31    1
    24    19    20    1
    25    19    21    1
    26    19    22    1
    27    23    24    1
    28    25    26    1
    29    25    27    1
    30    27    28    1
    31    27    29    1
    32    27    30    1
    33    31    32    1
    34    33    37    2
    35    33    38    1
    36    34    35    1
    37    34    36    1
    38    34    38    1
    39    34    39    1
    40    39    40    1
    41    39    41    1
    42    39    42    1
@<TRIPOS>SUBSTRUCTURE
     1 1           1 GROUP             0 ****  ****    0  
@<TRIPOS>MOLECULE
Molecule Name_00031
    42    42     1     0     0
SMALL
NO_CHARGES
****
Generated from the CSD

@<TRIPOS>ATOM
     1 C1       3.4289  -0.3565  -0.2516   C.ar      1 1      0.0000
     2 C2       2.6223  -0.2931  -1.3661   C.ar      1 1      0.0000
     3 C3       1.2522  -0.2311  -1.1882   C.ar      1 1      0.0000
     4 C4       0.6847  -0.2342   0.0812   C.ar      1 1      0.0000
     5 C5       1.5365  -0.2957   1.1785   C.ar      1 1      0.0000
     6 C6       2.9094  -0.3582   1.0238   C.ar      1 1      0.0000
     7 H7       3.0525  -0.2918  -2.3622   H         1 1      0.0000
     8 H8       0.6110  -0.1783  -2.0613   H         1 1      0.0000
     9 H9       1.1196  -0.2942   2.1801   H         1 1      0.0000
    10 H10      3.5630  -0.4075   1.8885   H         1 1      0.0000
    11 N11      4.8846  -0.4238  -0.4283   N.pl3     1 1      0.0000
    12 O12      5.5862  -0.4795   0.5696   O.2       1 1      0.0000
    13 O13      5.3297  -0.4212  -1.5654   O.2       1 1      0.0000
    14 CL3     -0.8319  -0.1764   0.2698   C.3       1 1      0.0000
    15 CL1     -1.5588  -0.9287  -0.8808   C.3       1 1      0.0000
    16 H16     -1.3204  -0.4332  -1.8297   H         1 1      0.0000
    17 H17     -1.1492  -1.9445  -0.9413   H         1 1      0.0000
    18 CL      -3.0891  -1.0367  -0.7595   C.3       1 1      0.0000
    19 CL2     -3.6340  -1.7342  -1.9924   C.3       1 1      0.0000
    20 H20     -4.7162  -1.8304  -1.9344   H         1 1      0.0000
    21 H21     -3.3913  -1.1727  -2.8921   H         1 1      0.0000
    22 H22     -3.2099  -2.7313  -2.0905   H         1 1      0.0000
    23 OL2     -1.1360  -0.7596   1.5307   O.3       1 1      0.0000
    24 H24     -2.1095  -0.6997   1.6943   H         1 1      0.0000
    25 N25     -3.4473  -1.8102   0.4004   N.3       1 1      0.0000
    26 H26     -4.4662  -1.8376   0.4387   H         1 1      0.0000
    27 C27     -2.9786  -3.1963   0.4470   C.3       1 1      0.0000
    28 H28     -1.8920  -3.2375   0.4097   H         1 1      0.0000
    29 H29     -3.3050  -3.6832   1.3635   H         1 1      0.0000
    30 H30     -3.3683  -3.7637  -0.3956   H         1 1      0.0000
    31 OL1     -3.6540   0.2685  -0.7278   O.3       1 1      0.0000
    32 H32     -4.6392   0.1991  -0.6755   H         1 1      0.0000
    33 CL4     -1.1810   1.3253   0.2853   C.2       1 1      0.0000
    34 C34     -1.5267   3.2261   1.6615   C.3       1 1      0.0000
    35 H35     -2.2799   3.5203   0.9202   H         1 1      0.0000
    36 H36     -1.9431   3.4237   2.6570   H         1 1      0.0000
    37 OL3     -1.4010   1.9654  -0.7057   O.2       1 1      0.0000
    38 OL4     -1.2063   1.8105   1.5206   O.3       1 1      0.0000
    39 C39     -0.2827   4.0031   1.4635   C.3       1 1      0.0000
    40 H40      0.1320   3.8215   0.4741   H         1 1      0.0000
    41 H41     -0.4746   5.0696   1.5600   H         1 1      0.0000
    42 H42      0.4670   3.7254   2.2014   H         1 1      0.0000
@<TRIPOS>BOND
     1     1     2   ar
     2     1     6   ar
     3     1    11    1
     4     2     3   ar
     5     2     7    1
     6     3     4   ar
     7     3     8    1
     8     4     5   ar
     9     4    14    1
    10     5     6   ar
    11     5     9    1
    12     6    10    1
    13    11    12    2
    14    11    13    2
    15    14    15    1
    16    14    23    1
    17    14    33    1
    18    15    16    1
    19    15    17    1
    20    15    18    1
    21    18    19    1
    22    18    25    1
    23    18    31    1
    24    19    20    1
    25    19    21    1
    26    19    22    1
    27    23    24    1
    28    25    26    1
    29    25    27    1
    30    27    28    1
    31    27    29    1
    32    27    30    1
    33    31    32    1
    34    33    37    2
    35    33    38    1
    36    34    35    1
    37    34    36    1
    38    34    38    1
    39    34    39    1
    40    39    40    1
    41    39    41    1
    42    39    42    1
@<TRIPOS>SUBSTRUCTURE
     1 1           1 GROUP             0 ****  ****    0  
@<TRIPOS>MOLECULE
Molecule Name_00032
    42    42     1     0     0
SMALL
NO_CHARGES
****
Generated from the CSD

@<TRIPOS>ATOM
     1 C1       3.6285  -0.4179  -0.2184   C.ar      1 1      0.0000
     2 C2       2.8392  -0.3603  -1.3454   C.ar      1 1      0.0000
     3 C3       1.4674  -0.2789  -1.1886   C.ar      1 1      0.0000
     4 C4       0.8815  -0.2574   0.0722   C.ar      1 1      0.0000
     5 C5       1.7164  -0.3140   1.1827   C.ar      1 1      0.0000
     6 C6       3.0905  -0.3955   1.0491   C.ar      1 1      0.0000
     7 H7       3.2838  -0.3781  -2.3350   H         1 1      0.0000
     8 H8       0.8398  -0.2304  -2.0717   H         1 1      0.0000
     9 H9       1.2850  -0.2934   2.1779   H         1 1      0.0000
    10 H10      3.7308  -0.4408   1.9239   H         1 1      0.0000
    11 N11      5.0857  -0.5056  -0.3726   N.pl3     1 1      0.0000
    12 O12      5.7719  -0.5560   0.6362   O.2       1 1      0.0000
    13 O13      5.5474  -0.5243  -1.5030   O.2       1 1      0.0000
    14 CL3     -0.6368  -0.1783   0.2375   C.3       1 1      0.0000
    15 CL1     -1.3563  -0.9335  -0.9159   C.3       1 1      0.0000
    16 H16     -1.1181  -0.4356  -1.8636   H         1 1      0.0000
    17 H17     -0.9407  -1.9470  -0.9764   H         1 1      0.0000
    18 CL      -2.8862  -1.0504  -0.7989   C.3       1 1      0.0000
    19 CL2     -3.4336  -1.6619  -2.0755   C.3       1 1      0.0000
    20 H20     -4.5186  -1.7325  -2.0350   H         1 1      0.0000
    21 H21     -3.1654  -1.0567  -2.9389   H         1 1      0.0000
    22 H22     -3.0343  -2.6627  -2.2259   H         1 1      0.0000
    23 OL2     -0.9669  -0.7442   1.4998   O.3       1 1      0.0000
    24 H24     -1.6767  -0.2037   1.9268   H         1 1      0.0000
    25 N25     -3.2415  -1.9019   0.3060   N.3       1 1      0.0000
    26 H26     -2.8481  -1.4802   1.1472   H         1 1      0.0000
    27 C27     -4.6693  -2.1071   0.5561   C.3       1 1      0.0000
    28 H28     -5.1492  -2.5684  -0.3045   H         1 1      0.0000
    29 H29     -4.8208  -2.7554   1.4166   H         1 1      0.0000
    30 H30     -5.1662  -1.1596   0.7538   H         1 1      0.0000
    31 OL1     -3.4516   0.2492  -0.6764   O.3       1 1      0.0000
    32 H32     -4.4373   0.1770  -0.6426   H         1 1      0.0000
    33 CL4     -0.9668   1.3277   0.2322   C.2       1 1      0.0000
    34 C34     -1.2425   3.2616   1.5776   C.3       1 1      0.0000
    35 H35     -0.7901   3.6680   2.4906   H         1 1      0.0000
    36 H36     -0.8244   3.8108   0.7250   H         1 1      0.0000
    37 OL3     -1.2123   1.9495  -0.7646   O.2       1 1      0.0000
    38 OL4     -0.9444   1.8394   1.4568   O.3       1 1      0.0000
    39 C39     -2.7131   3.4234   1.6193   C.3       1 1      0.0000
    40 H40     -3.1358   2.8906   2.4686   H         1 1      0.0000
    41 H41     -2.9832   4.4734   1.7095   H         1 1      0.0000
    42 H42     -3.1700   3.0325   0.7125   H         1 1      0.0000
@<TRIPOS>BOND
     1     1     2   ar
     2     1     6   ar
     3     1    11    1
     4     2     3   ar
     5     2     7    1
     6     3     4   ar
     7     3     8    1
     8     4     5   ar
     9     4    14    1
    10     5     6   ar
    11     5     9    1
    12     6    10    1
    13    11    12    2
    14    11    13    2
    15    14    15    1
    16    14    23    1
    17    14    33    1
    18    15    16    1
    19    15    17    1
    20    15    18    1
    21    18    19    1
    22    18    25    1
    23    18    31    1
    24    19    20    1
    25    19    21    1
    26    19    22    1
    27    23    24    1
    28    25    26    1
    29    25    27    1
    30    27    28    1
    31    27    29    1
    32    27    30    1
    33    31    32    1
    34    33    37    2
    35    33    38    1
    36    34    35    1
    37    34    36    1
    38    34    38    1
    39    34    39    1
    40    39    40    1
    41    39    41    1
    42    39    42    1
@<TRIPOS>SUBSTRUCTURE
     1 1           1 GROUP             0 ****  ****    0  
@<TRIPOS>MOLECULE
Molecule Name_00033
    42    42     1     0     0
SMALL
NO_CHARGES
****
Generated from the CSD

@<TRIPOS>ATOM
     1 C1       3.5340  -0.5069  -0.2216   C.ar      1 1      0.0000
     2 C2       2.7434  -0.4087  -1.3450   C.ar      1 1      0.0000
     3 C3       1.3765  -0.2750  -1.1822   C.ar      1 1      0.0000
     4 C4       0.7965  -0.2412   0.0810   C.ar      1 1      0.0000
     5 C5       1.6324  -0.3399   1.1878   C.ar      1 1      0.0000
     6 C6       3.0018  -0.4742   1.0482   C.ar      1 1      0.0000
     7 H7       3.1835  -0.4356  -2.3364   H         1 1      0.0000
     8 H8       0.7481  -0.1944  -2.0624   H         1 1      0.0000
     9 H9       1.2057  -0.3109   2.1848   H         1 1      0.0000
    10 H10      3.6429  -0.5519   1.9200   H         1 1      0.0000
    11 N11      4.9860  -0.6504  -0.3823   N.pl3     1 1      0.0000
    12 O12      5.6733  -0.7362   0.6234   O.2       1 1      0.0000
    13 O13      5.4425  -0.6776  -1.5146   O.2       1 1      0.0000
    14 CL3     -0.7170  -0.1040   0.2530   C.3       1 1      0.0000
    15 CL1     -1.4698  -0.8247  -0.9012   C.3       1 1      0.0000
    16 H16     -1.1962  -0.3478  -1.8502   H         1 1      0.0000
    17 H17     -1.1126  -1.8606  -0.9518   H         1 1      0.0000
    18 CL      -3.0048  -0.8528  -0.7957   C.3       1 1      0.0000
    19 CL2     -3.5721  -1.5287  -2.0305   C.3       1 1      0.0000
    20 H20     -4.6584  -1.5685  -1.9837   H         1 1      0.0000
    21 H21     -3.2913  -0.9858  -2.9307   H         1 1      0.0000
    22 H22     -3.1991  -2.5469  -2.1186   H         1 1      0.0000
    23 OL2     -1.0640  -0.6631   1.5138   O.3       1 1      0.0000
    24 H24     -2.0348  -0.5521   1.6666   H         1 1      0.0000
    25 N25     -3.4146  -1.5998   0.3645   N.3       1 1      0.0000
    26 H26     -4.4339  -1.5743   0.3920   H         1 1      0.0000
    27 C27     -3.0187  -3.0079   0.4237   C.3       1 1      0.0000
    28 H28     -1.9353  -3.1054   0.3983   H         1 1      0.0000
    29 H29     -3.3794  -3.4718   1.3393   H         1 1      0.0000
    30 H30     -3.4284  -3.5595  -0.4199   H         1 1      0.0000
    31 OL1     -3.5018   0.4800  -0.7773   O.3       1 1      0.0000
    32 H32     -4.4897   0.4618  -0.7352   H         1 1      0.0000
    33 CL4     -0.9882   1.4138   0.2566   C.2       1 1      0.0000
    34 C34     -1.2495   3.3381   1.6185   C.3       1 1      0.0000
    35 H35     -0.8233   3.7138   2.5570   H         1 1      0.0000
    36 H36     -0.7726   3.8823   0.7940   H         1 1      0.0000
    37 OL3     -1.1644   2.0585  -0.7403   O.2       1 1      0.0000
    38 OL4     -1.0013   1.9071   1.4889   O.3       1 1      0.0000
    39 C39     -2.7132   3.5568   1.5973   C.3       1 1      0.0000
    40 H40     -3.1939   3.0292   2.4185   H         1 1      0.0000
    41 H41     -2.9464   4.6152   1.6918   H         1 1      0.0000
    42 H42     -3.1434   3.1968   0.6651   H         1 1      0.0000
@<TRIPOS>BOND
     1     1     2   ar
     2     1     6   ar
     3     1    11    1
     4     2     3   ar
     5     2     7    1
     6     3     4   ar
     7     3     8    1
     8     4     5   ar
     9     4    14    1
    10     5     6   ar
    11     5     9    1
    12     6    10    1
    13    11    12    2
    14    11    13    2
    15    14    15    1
    16    14    23    1
    17    14    33    1
    18    15    16    1
    19    15    17    1
    20    15    18    1
    21    18    19    1
    22    18    25    1
    23    18    31    1
    24    19    20    1
    25    19    21    1
    26    19    22    1
    27    23    24    1
    28    25    26    1
    29    25    27    1
    30    27    28    1
    31    27    29    1
    32    27    30    1
    33    31    32    1
    34    33    37    2
    35    33    38    1
    36    34    35    1
    37    34    36    1
    38    34    38    1
    39    34    39    1
    40    39    40    1
    41    39    41    1
    42    39    42    1
@<TRIPOS>SUBSTRUCTURE
     1 1           1 GROUP             0 ****  ****    0  
@<TRIPOS>MOLECULE
Molecule Name_00034
    42    42     1     0     0
SMALL
NO_CHARGES
****
Generated from the CSD

@<TRIPOS>ATOM
     1 C1       3.5501  -0.2598  -0.2466   C.ar      1 1      0.0000
     2 C2       2.7315  -0.2939  -1.3535   C.ar      1 1      0.0000
     3 C3       1.3622  -0.3301  -1.1625   C.ar      1 1      0.0000
     4 C4       0.8076  -0.3352   0.1125   C.ar      1 1      0.0000
     5 C5       1.6710  -0.2964   1.2017   C.ar      1 1      0.0000
     6 C6       3.0433  -0.2597   1.0339   C.ar      1 1      0.0000
     7 H7       3.1517  -0.2922  -2.3539   H         1 1      0.0000
     8 H8       0.7113  -0.3543  -2.0297   H         1 1      0.0000
     9 H9       1.2638  -0.2941   2.2073   H         1 1      0.0000
    10 H10      3.7062  -0.2313   1.8924   H         1 1      0.0000
    11 N11      5.0051  -0.2224  -0.4371   N.pl3     1 1      0.0000
    12 O12      5.7175  -0.1925   0.5542   O.2       1 1      0.0000
    13 O13      5.4389  -0.2228  -1.5786   O.2       1 1      0.0000
    14 CL3     -0.7073  -0.3863   0.3159   C.3       1 1      0.0000
    15 CL1     -1.3850  -1.2272  -0.8031   C.3       1 1      0.0000
    16 H16     -1.1992  -0.7412  -1.7685   H         1 1      0.0000
    17 H17     -0.8951  -2.2080  -0.8417   H         1 1      0.0000
    18 CL      -2.8999  -1.4548  -0.6566   C.3       1 1      0.0000
    19 CL2     -3.1542  -2.3083   0.5724   C.3       1 1      0.0000
    20 H20     -3.9712  -3.0048   0.3959   H         1 1      0.0000
    21 H21     -2.2683  -2.8838   0.8323   H         1 1      0.0000
    22 H22     -3.4171  -1.6868   1.4259   H         1 1      0.0000
    23 OL2     -0.9554  -0.9509   1.5974   O.3       1 1      0.0000
    24 H24     -1.8248  -0.6247   1.9376   H         1 1      0.0000
    25 N25     -3.5825  -0.1984  -0.4912   N.3       1 1      0.0000
    26 H26     -3.3774   0.3644  -1.3167   H         1 1      0.0000
    27 C27     -5.0393  -0.2452  -0.3547   C.3       1 1      0.0000
    28 H28     -5.3266  -0.8343   0.5138   H         1 1      0.0000
    29 H29     -5.4479   0.7561  -0.2353   H         1 1      0.0000
    30 H30     -5.4949  -0.6945  -1.2347   H         1 1      0.0000
    31 OL1     -3.3797  -2.1807  -1.7820   O.3       1 1      0.0000
    32 H32     -4.3438  -2.3683  -1.6654   H         1 1      0.0000
    33 CL4     -1.1694   1.0844   0.2892   C.2       1 1      0.0000
    34 C34     -1.6302   3.0010   1.6086   C.3       1 1      0.0000
    35 H35     -2.4188   3.2114   0.8756   H         1 1      0.0000
    36 H36     -2.0397   3.2016   2.6063   H         1 1      0.0000
    37 OL3     -1.4579   1.6709  -0.7173   O.2       1 1      0.0000
    38 OL4     -1.2060   1.6095   1.5079   O.3       1 1      0.0000
    39 C39     -0.4533   3.8620   1.3558   C.3       1 1      0.0000
    40 H40     -0.0465   3.6776   0.3637   H         1 1      0.0000
    41 H41     -0.7238   4.9139   1.4209   H         1 1      0.0000
    42 H42      0.3305   3.6679   2.0849   H         1 1      0.0000
@<TRIPOS>BOND
     1     1     2   ar
     2     1     6   ar
     3     1    11    1
     4     2     3   ar
     5     2     7    1
     6     3     4   ar
     7     3     8    1
     8     4     5   ar
     9     4    14    1
    10     5     6   ar
    11     5     9    1
    12     6    10    1
    13    11    12    2
    14    11    13    2
    15    14    15    1
    16    14    23    1
    17    14    33    1
    18    15    16    1
    19    15    17    1
    20    15    18    1
    21    18    19    1
    22    18    25    1
    23    18    31    1
    24    19    20    1
    25    19    21    1
    26    19    22    1
    27    23    24    1
    28    25    26    1
    29    25    27    1
    30    27    28    1
    31    27    29    1
    32    27    30    1
    33    31    32    1
    34    33    37    2
    35    33    38    1
    36    34    35    1
    37    34    36    1
    38    34    38    1
    39    34    39    1
    40    39    40    1
    41    39    41    1
    42    39    42    1
@<TRIPOS>SUBSTRUCTURE
     1 1           1 GROUP             0 ****  ****    0  
@<TRIPOS>MOLECULE
Molecule Name_00035
    42    42     1     0     0
SMALL
NO_CHARGES
****
Generated from the CSD

@<TRIPOS>ATOM
     1 C1       3.6571  -0.4157  -0.2151   C.ar      1 1      0.0000
     2 C2       2.8498  -0.4221  -1.3308   C.ar      1 1      0.0000
     3 C3       1.4785  -0.3826  -1.1551   C.ar      1 1      0.0000
     4 C4       0.9107  -0.3398   0.1134   C.ar      1 1      0.0000
     5 C5       1.7632  -0.3313   1.2118   C.ar      1 1      0.0000
     6 C6       3.1373  -0.3701   1.0594   C.ar      1 1      0.0000
     7 H7       3.2803  -0.4572  -2.3262   H         1 1      0.0000
     8 H8       0.8367  -0.3846  -2.0294   H         1 1      0.0000
     9 H9       1.3460  -0.2928   2.2125   H         1 1      0.0000
    10 H10      3.7914  -0.3647   1.9250   H         1 1      0.0000
    11 N11      5.1140  -0.4586  -0.3893   N.pl3     1 1      0.0000
    12 O12      5.8162  -0.4523   0.6097   O.2       1 1      0.0000
    13 O13      5.5595  -0.4986  -1.5257   O.2       1 1      0.0000
    14 CL3     -0.6068  -0.3072   0.3000   C.3       1 1      0.0000
    15 CL1     -1.3163  -1.1269  -0.8150   C.3       1 1      0.0000
    16 H16     -1.0944  -0.6655  -1.7848   H         1 1      0.0000
    17 H17     -0.8792  -2.1329  -0.8344   H         1 1      0.0000
    18 CL      -2.8427  -1.2714  -0.6828   C.3       1 1      0.0000
    19 CL2     -3.1555  -2.0923   0.5548   C.3       1 1      0.0000
    20 H20     -4.0065  -2.7468   0.3786   H         1 1      0.0000
    21 H21     -2.3044  -2.7104   0.8329   H         1 1      0.0000
    22 H22     -3.3939  -1.4455   1.3965   H         1 1      0.0000
    23 OL2     -0.8984  -0.8393   1.5862   O.3       1 1      0.0000
    24 H24     -1.7528  -0.4624   1.9118   H         1 1      0.0000
    25 N25     -3.4590   0.0218  -0.5427   N.3       1 1      0.0000
    26 H26     -3.2153   0.5610  -1.3735   H         1 1      0.0000
    27 C27     -4.9176   0.0546  -0.4224   C.3       1 1      0.0000
    28 H28     -5.2453  -0.5058   0.4508   H         1 1      0.0000
    29 H29     -5.2734   1.0778  -0.3216   H         1 1      0.0000
    30 H30     -5.3870  -0.3824  -1.3013   H         1 1      0.0000
    31 OL1     -3.3485  -1.9869  -1.8036   O.3       1 1      0.0000
    32 H32     -4.3223  -2.1212  -1.6955   H         1 1      0.0000
    33 CL4     -0.9894   1.1854   0.2476   C.2       1 1      0.0000
    34 C34     -1.3614   3.1427   1.5350   C.3       1 1      0.0000
    35 H35     -0.9430   3.5885   2.4458   H         1 1      0.0000
    36 H36     -0.9448   3.6840   0.6767   H         1 1      0.0000
    37 OL3     -1.2353   1.7719  -0.7702   O.2       1 1      0.0000
    38 OL4     -1.0110   1.7293   1.4584   O.3       1 1      0.0000
    39 C39     -2.8373   3.2529   1.5424   C.3       1 1      0.0000
    40 H40     -3.2590   2.7276   2.3969   H         1 1      0.0000
    41 H41     -3.1460   4.2946   1.5990   H         1 1      0.0000
    42 H42     -3.2607   2.8225   0.6373   H         1 1      0.0000
@<TRIPOS>BOND
     1     1     2   ar
     2     1     6   ar
     3     1    11    1
     4     2     3   ar
     5     2     7    1
     6     3     4   ar
     7     3     8    1
     8     4     5   ar
     9     4    14    1
    10     5     6   ar
    11     5     9    1
    12     6    10    1
    13    11    12    2
    14    11    13    2
    15    14    15    1
    16    14    23    1
    17    14    33    1
    18    15    16    1
    19    15    17    1
    20    15    18    1
    21    18    19    1
    22    18    25    1
    23    18    31    1
    24    19    20    1
    25    19    21    1
    26    19    22    1
    27    23    24    1
    28    25    26    1
    29    25    27    1
    30    27    28    1
    31    27    29    1
    32    27    30    1
    33    31    32    1
    34    33    37    2
    35    33    38    1
    36    34    35    1
    37    34    36    1
    38    34    38    1
    39    34    39    1
    40    39    40    1
    41    39    41    1
    42    39    42    1
@<TRIPOS>SUBSTRUCTURE
     1 1           1 GROUP             0 ****  ****    0  
@<TRIPOS>MOLECULE
Molecule Name_00036
    42    42     1     0     0
SMALL
NO_CHARGES
****
Generated from the CSD

@<TRIPOS>ATOM
     1 C1       3.5755  -0.2842  -0.1782   C.ar      1 1      0.0000
     2 C2       3.0631   0.0405   1.0581   C.ar      1 1      0.0000
     3 C3       1.6956  -0.0394   1.2490   C.ar      1 1      0.0000
     4 C4       0.8422  -0.4347   0.2249   C.ar      1 1      0.0000
     5 C5       1.4026  -0.7569  -1.0061   C.ar      1 1      0.0000
     6 C6       2.7673  -0.6841  -1.2191   C.ar      1 1      0.0000
     7 H7       3.7181   0.3522   1.8651   H         1 1      0.0000
     8 H8       1.2853   0.2123   2.2209   H         1 1      0.0000
     9 H9       0.7594  -1.0734  -1.8204   H         1 1      0.0000
    10 H10      3.1918  -0.9367  -2.1851   H         1 1      0.0000
    11 N11      5.0253  -0.2020  -0.3927   N.pl3     1 1      0.0000
    12 O12      5.4642  -0.4932  -1.4945   O.2       1 1      0.0000
    13 O13      5.7286   0.1540   0.5400   O.2       1 1      0.0000
    14 CL3     -0.6700  -0.5102   0.4404   C.3       1 1      0.0000
    15 CL1     -1.4120  -0.6723  -0.9167   C.3       1 1      0.0000
    16 H16     -1.1558   0.1778  -1.5604   H         1 1      0.0000
    17 H17     -1.0301  -1.5730  -1.4130   H         1 1      0.0000
    18 CL      -2.9452  -0.7812  -0.8421   C.3       1 1      0.0000
    19 CL2     -3.5020  -0.8813  -2.2504   C.3       1 1      0.0000
    20 H20     -4.5895  -0.9116  -2.2340   H         1 1      0.0000
    21 H21     -3.1958  -0.0252  -2.8480   H         1 1      0.0000
    22 H22     -3.1452  -1.7834  -2.7430   H         1 1      0.0000
    23 OL2     -0.9326  -1.6133   1.2986   O.3       1 1      0.0000
    24 H24     -1.4721  -1.3089   2.0695   H         1 1      0.0000
    25 N25     -3.3297  -1.9610  -0.1125   N.3       1 1      0.0000
    26 H26     -2.9248  -1.8810   0.8203   H         1 1      0.0000
    27 C27     -4.7637  -2.1987   0.0608   C.3       1 1      0.0000
    28 H28     -5.2537  -2.3208  -0.9029   H         1 1      0.0000
    29 H29     -4.9374  -3.0994   0.6459   H         1 1      0.0000
    30 H30     -5.2335  -1.3638   0.5765   H         1 1      0.0000
    31 OL1     -3.4756   0.4041  -0.2611   O.3       1 1      0.0000
    32 H32     -4.4634   0.3555  -0.2590   H         1 1      0.0000
    33 CL4     -1.0448   0.8082   1.1464   C.2       1 1      0.0000
    34 C34     -1.4228   3.1313   0.8518   C.3       1 1      0.0000
    35 H35     -2.4167   3.0963   1.3147   H         1 1      0.0000
    36 H36     -0.7024   3.4151   1.6288   H         1 1      0.0000
    37 OL3     -1.2752   0.8892   2.3215   O.2       1 1      0.0000
    38 OL4     -1.0787   1.8275   0.2967   O.3       1 1      0.0000
    39 C39     -1.4053   4.1209  -0.2486   C.3       1 1      0.0000
    40 H40     -2.1248   3.8533  -1.0196   H         1 1      0.0000
    41 H41     -1.6574   5.1128   0.1207   H         1 1      0.0000
    42 H42     -0.4198   4.1704  -0.7072   H         1 1      0.0000
@<TRIPOS>BOND
     1     1     2   ar
     2     1     6   ar
     3     1    11    1
     4     2     3   ar
     5     2     7    1
     6     3     4   ar
     7     3     8    1
     8     4     5   ar
     9     4    14    1
    10     5     6   ar
    11     5     9    1
    12     6    10    1
    13    11    12    2
    14    11    13    2
    15    14    15    1
    16    14    23    1
    17    14    33    1
    18    15    16    1
    19    15    17    1
    20    15    18    1
    21    18    19    1
    22    18    25    1
    23    18    31    1
    24    19    20    1
    25    19    21    1
    26    19    22    1
    27    23    24    1
    28    25    26    1
    29    25    27    1
    30    27    28    1
    31    27    29    1
    32    27    30    1
    33    31    32    1
    34    33    37    2
    35    33    38    1
    36    34    35    1
    37    34    36    1
    38    34    38    1
    39    34    39    1
    40    39    40    1
    41    39    41    1
    42    39    42    1
@<TRIPOS>SUBSTRUCTURE
     1 1           1 GROUP             0 ****  ****    0  
@<TRIPOS>MOLECULE
Molecule Name_00037
    42    42     1     0     0
SMALL
NO_CHARGES
****
Generated from the CSD

@<TRIPOS>ATOM
     1 C1       3.4770  -0.3723  -0.1765   C.ar      1 1      0.0000
     2 C2       2.9924   0.0044   1.0563   C.ar      1 1      0.0000
     3 C3       1.6252  -0.0173   1.2642   C.ar      1 1      0.0000
     4 C4       0.7450  -0.4058   0.2604   C.ar      1 1      0.0000
     5 C5       1.2778  -0.7816  -0.9677   C.ar      1 1      0.0000
     6 C6       2.6415  -0.7676  -1.1974   C.ar      1 1      0.0000
     7 H7       3.6685   0.3114   1.8474   H         1 1      0.0000
     8 H8       1.2366   0.2755   2.2335   H         1 1      0.0000
     9 H9       0.6131  -1.0941  -1.7662   H         1 1      0.0000
    10 H10      3.0444  -1.0617  -2.1610   H         1 1      0.0000
    11 N11      4.9263  -0.3521  -0.4090   N.pl3     1 1      0.0000
    12 O12      5.3404  -0.6889  -1.5073   O.2       1 1      0.0000
    13 O13      5.6538   0.0006   0.5061   O.2       1 1      0.0000
    14 CL3     -0.7664  -0.4168   0.4943   C.3       1 1      0.0000
    15 CL1     -1.5302  -0.5853  -0.8497   C.3       1 1      0.0000
    16 H16     -1.2491   0.2370  -1.5187   H         1 1      0.0000
    17 H17     -1.1893  -1.5129  -1.3261   H         1 1      0.0000
    18 CL      -3.0655  -0.6326  -0.7555   C.3       1 1      0.0000
    19 CL2     -3.6426  -0.7478  -2.1545   C.3       1 1      0.0000
    20 H20     -4.7293  -0.7886  -2.1213   H         1 1      0.0000
    21 H21     -3.3540   0.1073  -2.7623   H         1 1      0.0000
    22 H22     -3.2844  -1.6497  -2.6464   H         1 1      0.0000
    23 OL2     -1.0610  -1.4861   1.3844   O.3       1 1      0.0000
    24 H24     -2.0299  -1.4912   1.5827   H         1 1      0.0000
    25 N25     -3.4864  -1.7771   0.0093   N.3       1 1      0.0000
    26 H26     -4.5052  -1.7509   0.0507   H         1 1      0.0000
    27 C27     -3.1114  -3.0956  -0.5043   C.3       1 1      0.0000
    28 H28     -2.0296  -3.1894  -0.5729   H         1 1      0.0000
    29 H29     -3.4791  -3.8833   0.1499   H         1 1      0.0000
    30 H30     -3.5290  -3.2563  -1.4961   H         1 1      0.0000
    31 OL1     -3.5427   0.5872  -0.2004   O.3       1 1      0.0000
    32 H32     -4.5308   0.5671  -0.1635   H         1 1      0.0000
    33 CL4     -1.0815   0.9332   1.1691   C.2       1 1      0.0000
    34 C34     -1.3732   3.2607   0.8170   C.3       1 1      0.0000
    35 H35     -2.3621   3.2765   1.2916   H         1 1      0.0000
    36 H36     -0.6331   3.5365   1.5783   H         1 1      0.0000
    37 OL3     -1.2945   1.0537   2.3440   O.2       1 1      0.0000
    38 OL4     -1.0862   1.9305   0.2930   O.3       1 1      0.0000
    39 C39     -1.3306   4.2198  -0.3095   C.3       1 1      0.0000
    40 H40     -2.0691   3.9603  -1.0651   H         1 1      0.0000
    41 H41     -1.5398   5.2300   0.0361   H         1 1      0.0000
    42 H42     -0.3496   4.2189  -0.7799   H         1 1      0.0000
@<TRIPOS>BOND
     1     1     2   ar
     2     1     6   ar
     3     1    11    1
     4     2     3   ar
     5     2     7    1
     6     3     4   ar
     7     3     8    1
     8     4     5   ar
     9     4    14    1
    10     5     6   ar
    11     5     9    1
    12     6    10    1
    13    11    12    2
    14    11    13    2
    15    14    15    1
    16    14    23    1
    17    14    33    1
    18    15    16    1
    19    15    17    1
    20    15    18    1
    21    18    19    1
    22    18    25    1
    23    18    31    1
    24    19    20    1
    25    19    21    1
    26    19    22    1
    27    23    24    1
    28    25    26    1
    29    25    27    1
    30    27    28    1
    31    27    29    1
    32    27    30    1
    33    31    32    1
    34    33    37    2
    35    33    38    1
    36    34    35    1
    37    34    36    1
    38    34    38    1
    39    34    39    1
    40    39    40    1
    41    39    41    1
    42    39    42    1
@<TRIPOS>SUBSTRUCTURE
     1 1           1 GROUP             0 ****  ****    0  
@<TRIPOS>MOLECULE
Molecule Name_00038
    42    42     1     0     0
SMALL
NO_CHARGES
****
Generated from the CSD

@<TRIPOS>ATOM
     1 C1       3.5932  -0.2627  -0.2125   C.ar      1 1      0.0000
     2 C2       3.0713  -0.0654   1.0465   C.ar      1 1      0.0000
     3 C3       1.7072  -0.2066   1.2265   C.ar      1 1      0.0000
     4 C4       0.8666  -0.5377   0.1696   C.ar      1 1      0.0000
     5 C5       1.4365  -0.7313  -1.0838   C.ar      1 1      0.0000
     6 C6       2.7979  -0.5954  -1.2865   C.ar      1 1      0.0000
     7 H7       3.7161   0.1951   1.8793   H         1 1      0.0000
     8 H8       1.2895  -0.0554   2.2159   H         1 1      0.0000
     9 H9       0.8035  -0.9956  -1.9243   H         1 1      0.0000
    10 H10      3.2298  -0.7476  -2.2701   H         1 1      0.0000
    11 N11      5.0394  -0.1144  -0.4157   N.pl3     1 1      0.0000
    12 O12      5.4869  -0.2926  -1.5379   O.2       1 1      0.0000
    13 O13      5.7312   0.1807   0.5464   O.2       1 1      0.0000
    14 CL3     -0.6422  -0.6814   0.3741   C.3       1 1      0.0000
    15 CL1     -1.3794  -0.7458  -0.9936   C.3       1 1      0.0000
    16 H16     -1.1486   0.1646  -1.5599   H         1 1      0.0000
    17 H17     -0.9712  -1.5879  -1.5660   H         1 1      0.0000
    18 CL      -2.9087  -0.9059  -0.9324   C.3       1 1      0.0000
    19 CL2     -3.2399  -2.2396  -0.2882   C.3       1 1      0.0000
    20 H20     -4.2156  -2.5938  -0.6144   H         1 1      0.0000
    21 H21     -2.4999  -2.9912  -0.5550   H         1 1      0.0000
    22 H22     -3.2568  -2.1506   0.7961   H         1 1      0.0000
    23 OL2     -0.8679  -1.8648   1.1298   O.3       1 1      0.0000
    24 H24     -1.5665  -1.6932   1.8085   H         1 1      0.0000
    25 N25     -3.4920   0.1437  -0.1386   N.3       1 1      0.0000
    26 H26     -3.2362   1.0281  -0.5777   H         1 1      0.0000
    27 C27     -4.9491   0.1402   0.0025   C.3       1 1      0.0000
    28 H28     -5.2893  -0.7824   0.4682   H         1 1      0.0000
    29 H29     -5.2787   0.9731   0.6200   H         1 1      0.0000
    30 H30     -5.4309   0.2271  -0.9691   H         1 1      0.0000
    31 OL1     -3.4345  -0.9328  -2.2540   O.3       1 1      0.0000
    32 H32     -4.4112  -1.0833  -2.2162   H         1 1      0.0000
    33 CL4     -1.0594   0.5557   1.1942   C.2       1 1      0.0000
    34 C34     -1.5100   2.8829   1.1081   C.3       1 1      0.0000
    35 H35     -2.5029   2.7753   1.5618   H         1 1      0.0000
    36 H36     -0.8000   3.1180   1.9107   H         1 1      0.0000
    37 OL3     -1.2939   0.5233   2.3708   O.2       1 1      0.0000
    38 OL4     -1.1241   1.6458   0.4395   O.3       1 1      0.0000
    39 C39     -1.5219   3.9677   0.1013   C.3       1 1      0.0000
    40 H40     -2.2316   3.7482  -0.6937   H         1 1      0.0000
    41 H41     -1.8057   4.9139   0.5572   H         1 1      0.0000
    42 H42     -0.5379   4.0889  -0.3467   H         1 1      0.0000
@<TRIPOS>BOND
     1     1     2   ar
     2     1     6   ar
     3     1    11    1
     4     2     3   ar
     5     2     7    1
     6     3     4   ar
     7     3     8    1
     8     4     5   ar
     9     4    14    1
    10     5     6   ar
    11     5     9    1
    12     6    10    1
    13    11    12    2
    14    11    13    2
    15    14    15    1
    16    14    23    1
    17    14    33    1
    18    15    16    1
    19    15    17    1
    20    15    18    1
    21    18    19    1
    22    18    25    1
    23    18    31    1
    24    19    20    1
    25    19    21    1
    26    19    22    1
    27    23    24    1
    28    25    26    1
    29    25    27    1
    30    27    28    1
    31    27    29    1
    32    27    30    1
    33    31    32    1
    34    33    37    2
    35    33    38    1
    36    34    35    1
    37    34    36    1
    38    34    38    1
    39    34    39    1
    40    39    40    1
    41    39    41    1
    42    39    42    1
@<TRIPOS>SUBSTRUCTURE
     1 1           1 GROUP             0 ****  ****    0  
@<TRIPOS>MOLECULE
Molecule Name_00039
    42    42     1     0     0
SMALL
NO_CHARGES
****
Generated from the CSD

@<TRIPOS>ATOM
     1 C1       3.5715  -0.2881  -0.1126   C.ar      1 1      0.0000
     2 C2       3.0839   0.2272   1.0678   C.ar      1 1      0.0000
     3 C3       1.7221   0.1692   1.3021   C.ar      1 1      0.0000
     4 C4       0.8499  -0.3915   0.3757   C.ar      1 1      0.0000
     5 C5       1.3857  -0.9031  -0.8010   C.ar      1 1      0.0000
     6 C6       2.7442  -0.8557  -1.0560   C.ar      1 1      0.0000
     7 H7       3.7537   0.6691   1.7981   H         1 1      0.0000
     8 H8       1.3314   0.5706   2.2308   H         1 1      0.0000
     9 H9       0.7275  -1.3508  -1.5382   H         1 1      0.0000
    10 H10      3.1493  -1.2570  -1.9791   H         1 1      0.0000
    11 N11      5.0151  -0.2310  -0.3727   N.pl3     1 1      0.0000
    12 O12      5.4319  -0.6921  -1.4238   O.2       1 1      0.0000
    13 O13      5.7354   0.2752   0.4735   O.2       1 1      0.0000
    14 CL3     -0.6560  -0.4423   0.6371   C.3       1 1      0.0000
    15 CL1     -1.4242  -0.8606  -0.6488   C.3       1 1      0.0000
    16 H16     -1.2608  -0.0972  -1.4191   H         1 1      0.0000
    17 H17     -0.9836  -1.7917  -1.0260   H         1 1      0.0000
    18 CL      -2.9396  -1.0776  -0.4926   C.3       1 1      0.0000
    19 CL2     -3.5748   0.2107  -0.0024   C.3       1 1      0.0000
    20 H20     -4.6459   0.2096  -0.1932   H         1 1      0.0000
    21 H21     -3.4214   0.3335   1.0678   H         1 1      0.0000
    22 H22     -3.1413   1.0711  -0.5078   H         1 1      0.0000
    23 OL2     -0.8837  -1.3706   1.6902   O.3       1 1      0.0000
    24 H24     -1.8488  -1.3936   1.9052   H         1 1      0.0000
    25 N25     -3.5298  -1.4266  -1.7583   N.3       1 1      0.0000
    26 H26     -3.0541  -2.2662  -2.0887   H         1 1      0.0000
    27 C27     -4.9650  -1.7149  -1.7667   C.3       1 1      0.0000
    28 H28     -5.5427  -0.8014  -1.6422   H         1 1      0.0000
    29 H29     -5.2600  -2.1771  -2.7064   H         1 1      0.0000
    30 H30     -5.2267  -2.3942  -0.9581   H         1 1      0.0000
    31 OL1     -3.1753  -2.0694   0.4996   O.3       1 1      0.0000
    32 H32     -4.1459  -2.1300   0.6797   H         1 1      0.0000
    33 CL4     -1.0356   0.9797   1.0963   C.2       1 1      0.0000
    34 C34     -1.3846   3.2193   0.3974   C.3       1 1      0.0000
    35 H35     -2.3898   3.2695   0.8340   H         1 1      0.0000
    36 H36     -0.6807   3.6290   1.1323   H         1 1      0.0000
    37 OL3     -1.2936   1.2627   2.2337   O.2       1 1      0.0000
    38 OL4     -1.0393   1.8378   0.0835   O.3       1 1      0.0000
    39 C39     -1.3311   4.0049  -0.8558   C.3       1 1      0.0000
    40 H40     -2.0342   3.6122  -1.5875   H         1 1      0.0000
    41 H41     -1.5829   5.0467  -0.6690   H         1 1      0.0000
    42 H42     -0.3345   3.9698  -1.2908   H         1 1      0.0000
@<TRIPOS>BOND
     1     1     2   ar
     2     1     6   ar
     3     1    11    1
     4     2     3   ar
     5     2     7    1
     6     3     4   ar
     7     3     8    1
     8     4     5   ar
     9     4    14    1
    10     5     6   ar
    11     5     9    1
    12     6    10    1
    13    11    12    2
    14    11    13    2
    15    14    15    1
    16    14    23    1
    17    14    33    1
    18    15    16    1
    19    15    17    1
    20    15    18    1
    21    18    19    1
    22    18    25    1
    23    18    31    1
    24    19    20    1
    25    19    21    1
    26    19    22    1
    27    23    24    1
    28    25    26    1
    29    25    27    1
    30    27    28    1
    31    27    29    1
    32    27    30    1
    33    31    32    1
    34    33    37    2
    35    33    38    1
    36    34    35    1
    37    34    36    1
    38    34    38    1
    39    34    39    1
    40    39    40    1
    41    39    41    1
    42    39    42    1
@<TRIPOS>SUBSTRUCTURE
     1 1           1 GROUP             0 ****  ****    0  
@<TRIPOS>MOLECULE
Molecule Name_00040
    42    42     1     0     0
SMALL
NO_CHARGES
****
Generated from the CSD

@<TRIPOS>ATOM
     1 C1       3.4966  -0.3687  -0.1012   C.ar      1 1      0.0000
     2 C2       3.0324   0.2263   1.0508   C.ar      1 1      0.0000
     3 C3       1.6747   0.1909   1.3126   C.ar      1 1      0.0000
     4 C4       0.7839  -0.4255   0.4410   C.ar      1 1      0.0000
     5 C5       1.2963  -1.0168  -0.7084   C.ar      1 1      0.0000
     6 C6       2.6502  -0.9934  -0.9899   C.ar      1 1      0.0000
     7 H7       3.7169   0.7123   1.7382   H         1 1      0.0000
     8 H8       1.3024   0.6551   2.2193   H         1 1      0.0000
     9 H9       0.6233  -1.5091  -1.4024   H         1 1      0.0000
    10 H10      3.0370  -1.4571  -1.8913   H         1 1      0.0000
    11 N11      4.9355  -0.3363  -0.3900   N.pl3     1 1      0.0000
    12 O12      5.3315  -0.8683  -1.4153   O.2       1 1      0.0000
    13 O13      5.6729   0.2212   0.4079   O.2       1 1      0.0000
    14 CL3     -0.7174  -0.4512   0.7318   C.3       1 1      0.0000
    15 CL1     -1.5102  -0.9494  -0.5098   C.3       1 1      0.0000
    16 H16     -1.3567  -0.2400  -1.3319   H         1 1      0.0000
    17 H17     -1.0811  -1.9063  -0.8316   H         1 1      0.0000
    18 CL      -3.0237  -1.1461  -0.3133   C.3       1 1      0.0000
    19 CL2     -3.6443   0.1768   0.0969   C.3       1 1      0.0000
    20 H20     -4.7161   0.1744  -0.0901   H         1 1      0.0000
    21 H21     -3.4856   0.3651   1.1567   H         1 1      0.0000
    22 H22     -3.2044   0.9993  -0.4631   H         1 1      0.0000
    23 OL2     -0.9297  -1.3067   1.8478   O.3       1 1      0.0000
    24 H24     -1.8909  -1.3105   2.0809   H         1 1      0.0000
    25 N25     -3.6373  -1.5788  -1.5414   N.3       1 1      0.0000
    26 H26     -4.6312  -1.7058  -1.3507   H         1 1      0.0000
    27 C27     -3.5324  -0.6787  -2.6912   C.3       1 1      0.0000
    28 H28     -2.4904  -0.5073  -2.9530   H         1 1      0.0000
    29 H29     -4.0348  -1.1012  -3.5588   H         1 1      0.0000
    30 H30     -3.9891   0.2838  -2.4704   H         1 1      0.0000
    31 OL1     -3.2468  -2.0652   0.7494   O.3       1 1      0.0000
    32 H32     -4.2195  -2.1723   0.8926   H         1 1      0.0000
    33 CL4     -1.0828   1.0000   1.1028   C.2       1 1      0.0000
    34 C34     -1.4307   3.1915   0.2643   C.3       1 1      0.0000
    35 H35     -2.4291   3.2760   0.7111   H         1 1      0.0000
    36 H36     -0.7140   3.6438   0.9608   H         1 1      0.0000
    37 OL3     -1.3227   1.3581   2.2229   O.2       1 1      0.0000
    38 OL4     -1.0970   1.7904   0.0363   O.3       1 1      0.0000
    39 C39     -1.3916   3.8934  -1.0381   C.3       1 1      0.0000
    40 H40     -2.1073   3.4582  -1.7324   H         1 1      0.0000
    41 H41     -1.6352   4.9467  -0.9160   H         1 1      0.0000
    42 H42     -0.4016   3.8240  -1.4840   H         1 1      0.0000
@<TRIPOS>BOND
     1     1     2   ar
     2     1     6   ar
     3     1    11    1
     4     2     3   ar
     5     2     7    1
     6     3     4   ar
     7     3     8    1
     8     4     5   ar
     9     4    14    1
    10     5     6   ar
    11     5     9    1
    12     6    10    1
    13    11    12    2
    14    11    13    2
    15    14    15    1
    16    14    23    1
    17    14    33    1
    18    15    16    1
    19    15    17    1
    20    15    18    1
    21    18    19    1
    22    18    25    1
    23    18    31    1
    24    19    20    1
    25    19    21    1
    26    19    22    1
    27    23    24    1
    28    25    26    1
    29    25    27    1
    30    27    28    1
    31    27    29    1
    32    27    30    1
    33    31    32    1
    34    33    37    2
    35    33    38    1
    36    34    35    1
    37    34    36    1
    38    34    38    1
    39    34    39    1
    40    39    40    1
    41    39    41    1
    42    39    42    1
@<TRIPOS>SUBSTRUCTURE
     1 1           1 GROUP             0 ****  ****    0  
@<TRIPOS>MOLECULE
Molecule Name_00041
    42    42     1     0     0
SMALL
NO_CHARGES
****
Generated from the CSD

@<TRIPOS>ATOM
     1 C1       3.4697  -0.3801  -0.1100   C.ar      1 1      0.0000
     2 C2       3.0152   0.1866   1.0600   C.ar      1 1      0.0000
     3 C3       1.6548   0.1877   1.3094   C.ar      1 1      0.0000
     4 C4       0.7516  -0.3646   0.4080   C.ar      1 1      0.0000
     5 C5       1.2544  -0.9293  -0.7590   C.ar      1 1      0.0000
     6 C6       2.6108  -0.9415  -1.0286   C.ar      1 1      0.0000
     7 H7       3.7093   0.6225   1.7708   H         1 1      0.0000
     8 H8       1.2899   0.6298   2.2301   H         1 1      0.0000
     9 H9       0.5715  -1.3717  -1.4765   H         1 1      0.0000
    10 H10      2.9901  -1.3839  -1.9439   H         1 1      0.0000
    11 N11      4.9114  -0.3861  -0.3859   N.pl3     1 1      0.0000
    12 O12      5.2986  -0.8922  -1.4276   O.2       1 1      0.0000
    13 O13      5.6599   0.1154   0.4384   O.2       1 1      0.0000
    14 CL3     -0.7522  -0.3499   0.6856   C.3       1 1      0.0000
    15 CL1     -1.5499  -0.7735  -0.5803   C.3       1 1      0.0000
    16 H16     -1.3649  -0.0393  -1.3737   H         1 1      0.0000
    17 H17     -1.1505  -1.7317  -0.9348   H         1 1      0.0000
    18 CL      -3.0710  -0.9257  -0.4035   C.3       1 1      0.0000
    19 CL2     -3.6503   0.4013   0.0517   C.3       1 1      0.0000
    20 H20     -4.7197   0.4426  -0.1437   H         1 1      0.0000
    21 H21     -3.4951   0.5440   1.1191   H         1 1      0.0000
    22 H22     -3.1775   1.2288  -0.4731   H         1 1      0.0000
    23 OL2     -1.0037  -1.2392   1.7666   O.3       1 1      0.0000
    24 H24     -1.9666  -1.2188   1.9917   H         1 1      0.0000
    25 N25     -3.6875  -1.2904  -1.6520   N.3       1 1      0.0000
    26 H26     -3.4941  -0.5374  -2.3123   H         1 1      0.0000
    27 C27     -3.2386  -2.5356  -2.2774   C.3       1 1      0.0000
    28 H28     -3.4182  -3.3839  -1.6203   H         1 1      0.0000
    29 H29     -3.7692  -2.7116  -3.2108   H         1 1      0.0000
    30 H30     -2.1734  -2.4955  -2.4955   H         1 1      0.0000
    31 OL1     -3.3350  -1.8760   0.6217   O.3       1 1      0.0000
    32 H32     -4.3120  -1.9551   0.7529   H         1 1      0.0000
    33 CL4     -1.0718   1.0979   1.1085   C.2       1 1      0.0000
    34 C34     -1.3375   3.3301   0.3513   C.3       1 1      0.0000
    35 H35     -2.3365   3.4318   0.7930   H         1 1      0.0000
    36 H36     -0.6123   3.7311   1.0702   H         1 1      0.0000
    37 OL3     -1.3098   1.4215   2.2395   O.2       1 1      0.0000
    38 OL4     -1.0494   1.9280   0.0729   O.3       1 1      0.0000
    39 C39     -1.2626   4.0789  -0.9231   C.3       1 1      0.0000
    40 H40     -1.9862   3.6949  -1.6391   H         1 1      0.0000
    41 H41     -1.4716   5.1345  -0.7630   H         1 1      0.0000
    42 H42     -0.2714   3.9926  -1.3635   H         1 1      0.0000
@<TRIPOS>BOND
     1     1     2   ar
     2     1     6   ar
     3     1    11    1
     4     2     3   ar
     5     2     7    1
     6     3     4   ar
     7     3     8    1
     8     4     5   ar
     9     4    14    1
    10     5     6   ar
    11     5     9    1
    12     6    10    1
    13    11    12    2
    14    11    13    2
    15    14    15    1
    16    14    23    1
    17    14    33    1
    18    15    16    1
    19    15    17    1
    20    15    18    1
    21    18    19    1
    22    18    25    1
    23    18    31    1
    24    19    20    1
    25    19    21    1
    26    19    22    1
    27    23    24    1
    28    25    26    1
    29    25    27    1
    30    27    28    1
    31    27    29    1
    32    27    30    1
    33    31    32    1
    34    33    37    2
    35    33    38    1
    36    34    35    1
    37    34    36    1
    38    34    38    1
    39    34    39    1
    40    39    40    1
    41    39    41    1
    42    39    42    1
@<TRIPOS>SUBSTRUCTURE
     1 1           1 GROUP             0 ****  ****    0  
@<TRIPOS>MOLECULE
Molecule Name_00042
    42    42     1     0     0
SMALL
NO_CHARGES
****
Generated from the CSD

@<TRIPOS>ATOM
     1 C1       3.6329  -0.3780  -0.1492   C.ar      1 1      0.0000
     2 C2       2.8209   0.0483  -1.1766   C.ar      1 1      0.0000
     3 C3       1.4521   0.0564  -0.9780   C.ar      1 1      0.0000
     4 C4       0.8915  -0.3561   0.2257   C.ar      1 1      0.0000
     5 C5       1.7486  -0.7753   1.2371   C.ar      1 1      0.0000
     6 C6       3.1202  -0.7914   1.0603   C.ar      1 1      0.0000
     7 H7       3.2457   0.3710  -2.1214   H         1 1      0.0000
     8 H8       0.8067   0.3934  -1.7818   H         1 1      0.0000
     9 H9       1.3371  -1.0972   2.1879   H         1 1      0.0000
    10 H10      3.7780  -1.1224   1.8571   H         1 1      0.0000
    11 N11      5.0870  -0.3919  -0.3490   N.pl3     1 1      0.0000
    12 O12      5.7935  -0.7725   0.5714   O.2       1 1      0.0000
    13 O13      5.5261  -0.0222  -1.4269   O.2       1 1      0.0000
    14 CL3     -0.6236  -0.3547   0.4341   C.3       1 1      0.0000
    15 CL1     -1.3622  -0.6899  -0.8928   C.3       1 1      0.0000
    16 H16     -1.1194   0.0811  -1.6339   H         1 1      0.0000
    17 H17     -0.9654  -1.6372  -1.2783   H         1 1      0.0000
    18 CL      -2.8934  -0.8140  -0.8035   C.3       1 1      0.0000
    19 CL2     -3.4493  -1.0742  -2.1915   C.3       1 1      0.0000
    20 H20     -4.5355  -1.1326  -2.1673   H         1 1      0.0000
    21 H21     -3.1680  -0.2763  -2.8755   H         1 1      0.0000
    22 H22     -3.0683  -2.0122  -2.5900   H         1 1      0.0000
    23 OL2     -0.9252  -1.3135   1.4403   O.3       1 1      0.0000
    24 H24     -1.4564  -0.8836   2.1552   H         1 1      0.0000
    25 N25     -3.2590  -1.9138   0.0501   N.3       1 1      0.0000
    26 H26     -2.8550  -1.7273   0.9679   H         1 1      0.0000
    27 C27     -4.6891  -2.1537   0.2512   C.3       1 1      0.0000
    28 H28     -5.1795  -2.3765  -0.6941   H         1 1      0.0000
    29 H29     -4.8484  -2.9952   0.9222   H         1 1      0.0000
    30 H30     -5.1697  -1.2790   0.6844   H         1 1      0.0000
    31 OL1     -3.4420   0.4188  -0.3527   O.3       1 1      0.0000
    32 H32     -4.4290   0.3557  -0.3442   H         1 1      0.0000
    33 CL4     -0.9618   1.0627   0.9379   C.2       1 1      0.0000
    34 C34     -1.2662   3.3286   0.3060   C.3       1 1      0.0000
    35 H35     -0.8391   3.5710   1.2870   H         1 1      0.0000
    36 H36     -0.8287   4.0167  -0.4278   H         1 1      0.0000
    37 OL3     -1.1966   1.3200   2.0864   O.2       1 1      0.0000
    38 OL4     -0.9591   1.9485  -0.0508   O.3       1 1      0.0000
    39 C39     -2.7381   3.4811   0.3367   C.3       1 1      0.0000
    40 H40     -3.1802   2.8097   1.0698   H         1 1      0.0000
    41 H41     -3.0148   4.4999   0.5998   H         1 1      0.0000
    42 H42     -3.1698   3.2530  -0.6356   H         1 1      0.0000
@<TRIPOS>BOND
     1     1     2   ar
     2     1     6   ar
     3     1    11    1
     4     2     3   ar
     5     2     7    1
     6     3     4   ar
     7     3     8    1
     8     4     5   ar
     9     4    14    1
    10     5     6   ar
    11     5     9    1
    12     6    10    1
    13    11    12    2
    14    11    13    2
    15    14    15    1
    16    14    23    1
    17    14    33    1
    18    15    16    1
    19    15    17    1
    20    15    18    1
    21    18    19    1
    22    18    25    1
    23    18    31    1
    24    19    20    1
    25    19    21    1
    26    19    22    1
    27    23    24    1
    28    25    26    1
    29    25    27    1
    30    27    28    1
    31    27    29    1
    32    27    30    1
    33    31    32    1
    34    33    37    2
    35    33    38    1
    36    34    35    1
    37    34    36    1
    38    34    38    1
    39    34    39    1
    40    39    40    1
    41    39    41    1
    42    39    42    1
@<TRIPOS>SUBSTRUCTURE
     1 1           1 GROUP             0 ****  ****    0  
@<TRIPOS>MOLECULE
Molecule Name_00043
    42    42     1     0     0
SMALL
NO_CHARGES
****
Generated from the CSD

@<TRIPOS>ATOM
     1 C1       3.5302  -0.4671  -0.1502   C.ar      1 1      0.0000
     2 C2       2.7240  -0.0323  -1.1786   C.ar      1 1      0.0000
     3 C3       1.3589   0.0342  -0.9660   C.ar      1 1      0.0000
     4 C4       0.7961  -0.3287   0.2526   C.ar      1 1      0.0000
     5 C5       1.6475  -0.7585   1.2644   C.ar      1 1      0.0000
     6 C6       3.0154  -0.8327   1.0737   C.ar      1 1      0.0000
     7 H7       3.1504   0.2520  -2.1349   H         1 1      0.0000
     8 H8       0.7182   0.3783  -1.7705   H         1 1      0.0000
     9 H9       1.2345  -1.0424   2.2266   H         1 1      0.0000
    10 H10      3.6686  -1.1714   1.8711   H         1 1      0.0000
    11 N11      4.9803  -0.5429  -0.3647   N.pl3     1 1      0.0000
    12 O12      5.6817  -0.9304   0.5568   O.2       1 1      0.0000
    13 O13      5.4214  -0.2152  -1.4553   O.2       1 1      0.0000
    14 CL3     -0.7153  -0.2628   0.4767   C.3       1 1      0.0000
    15 CL1     -1.4813  -0.5983  -0.8344   C.3       1 1      0.0000
    16 H16     -1.2169   0.1458  -1.5955   H         1 1      0.0000
    17 H17     -1.1264  -1.5689  -1.2023   H         1 1      0.0000
    18 CL      -3.0152  -0.6598  -0.7264   C.3       1 1      0.0000
    19 CL2     -3.5965  -0.9290  -2.1023   C.3       1 1      0.0000
    20 H20     -4.6822  -0.9833  -2.0584   H         1 1      0.0000
    21 H21     -3.3246  -0.1374  -2.7975   H         1 1      0.0000
    22 H22     -3.2258  -1.8714  -2.4999   H         1 1      0.0000
    23 OL2     -1.0428  -1.1860   1.5076   O.3       1 1      0.0000
    24 H24     -2.0118  -1.1350   1.6989   H         1 1      0.0000
    25 N25     -3.4139  -1.7249   0.1559   N.3       1 1      0.0000
    26 H26     -4.4329  -1.7107   0.2005   H         1 1      0.0000
    27 C27     -3.0197  -3.0837  -0.2202   C.3       1 1      0.0000
    28 H28     -1.9368  -3.1670  -0.2854   H         1 1      0.0000
    29 H29     -3.3714  -3.8047   0.5147   H         1 1      0.0000
    30 H30     -3.4391  -3.3533  -1.1872   H         1 1      0.0000
    31 OL1     -3.5099   0.6035  -0.2983   O.3       1 1      0.0000
    32 H32     -4.4973   0.5717  -0.2534   H         1 1      0.0000
    33 CL4     -0.9919   1.1778   0.9514   C.2       1 1      0.0000
    34 C34     -1.2143   3.4392   0.2710   C.3       1 1      0.0000
    35 H35     -0.7670   3.6866   1.2416   H         1 1      0.0000
    36 H36     -0.7585   4.0928  -0.4829   H         1 1      0.0000
    37 OL3     -1.2033   1.4700   2.0960   O.2       1 1      0.0000
    38 OL4     -0.9657   2.0404  -0.0573   O.3       1 1      0.0000
    39 C39     -2.6786   3.6504   0.3135   C.3       1 1      0.0000
    40 H40     -3.1384   3.0136   1.0664   H         1 1      0.0000
    41 H41     -2.9122   4.6849   0.5561   H         1 1      0.0000
    42 H42     -3.1300   3.4176  -0.6487   H         1 1      0.0000
@<TRIPOS>BOND
     1     1     2   ar
     2     1     6   ar
     3     1    11    1
     4     2     3   ar
     5     2     7    1
     6     3     4   ar
     7     3     8    1
     8     4     5   ar
     9     4    14    1
    10     5     6   ar
    11     5     9    1
    12     6    10    1
    13    11    12    2
    14    11    13    2
    15    14    15    1
    16    14    23    1
    17    14    33    1
    18    15    16    1
    19    15    17    1
    20    15    18    1
    21    18    19    1
    22    18    25    1
    23    18    31    1
    24    19    20    1
    25    19    21    1
    26    19    22    1
    27    23    24    1
    28    25    26    1
    29    25    27    1
    30    27    28    1
    31    27    29    1
    32    27    30    1
    33    31    32    1
    34    33    37    2
    35    33    38    1
    36    34    35    1
    37    34    36    1
    38    34    38    1
    39    34    39    1
    40    39    40    1
    41    39    41    1
    42    39    42    1
@<TRIPOS>SUBSTRUCTURE
     1 1           1 GROUP             0 ****  ****    0  
@<TRIPOS>MOLECULE
Molecule Name_00044
    42    42     1     0     0
SMALL
NO_CHARGES
****
Generated from the CSD

@<TRIPOS>ATOM
     1 C1       3.5239  -0.2347  -0.1790   C.ar      1 1      0.0000
     2 C2       2.6866   0.1193  -1.2136   C.ar      1 1      0.0000
     3 C3       1.3201   0.0646  -1.0067   C.ar      1 1      0.0000
     4 C4       0.7867  -0.3391   0.2122   C.ar      1 1      0.0000
     5 C5       1.6686  -0.6841   1.2303   C.ar      1 1      0.0000
     6 C6       3.0384  -0.6367   1.0455   C.ar      1 1      0.0000
     7 H7       3.0901   0.4343  -2.1702   H         1 1      0.0000
     8 H8       0.6547   0.3445  -1.8161   H         1 1      0.0000
     9 H9       1.2784  -0.9975   2.1929   H         1 1      0.0000
    10 H10      3.7159  -0.9102   1.8477   H         1 1      0.0000
    11 N11      4.9759  -0.1817  -0.3875   N.pl3     1 1      0.0000
    12 O12      5.7050  -0.4985   0.5395   O.2       1 1      0.0000
    13 O13      5.3907   0.1770  -1.4786   O.2       1 1      0.0000
    14 CL3     -0.7255  -0.4074   0.4301   C.3       1 1      0.0000
    15 CL1     -1.4526  -0.8189  -0.8816   C.3       1 1      0.0000
    16 H16     -1.2525  -0.0594  -1.6469   H         1 1      0.0000
    17 H17     -1.0105  -1.7563  -1.2412   H         1 1      0.0000
    18 CL      -2.9753  -1.0169  -0.7790   C.3       1 1      0.0000
    19 CL2     -3.5240  -1.3464  -2.1552   C.3       1 1      0.0000
    20 H20     -4.6057  -1.4584  -2.1224   H         1 1      0.0000
    21 H21     -3.2864  -0.5563  -2.8644   H         1 1      0.0000
    22 H22     -3.0982  -2.2756  -2.5278   H         1 1      0.0000
    23 OL2     -0.9737  -1.3493   1.4663   O.3       1 1      0.0000
    24 H24     -1.5225  -0.9253   2.1714   H         1 1      0.0000
    25 N25     -3.2809  -2.1075   0.1092   N.3       1 1      0.0000
    26 H26     -2.8825  -1.8734   1.0185   H         1 1      0.0000
    27 C27     -4.6962  -2.4127   0.3264   C.3       1 1      0.0000
    28 H28     -5.1792  -2.6881  -0.6087   H         1 1      0.0000
    29 H29     -4.8097  -3.2405   1.0232   H         1 1      0.0000
    30 H30     -5.2181  -1.5505   0.7364   H         1 1      0.0000
    31 OL1     -3.5830   0.1998  -0.3618   O.3       1 1      0.0000
    32 H32     -4.5655   0.0876  -0.3452   H         1 1      0.0000
    33 CL4     -1.1322   1.0058   0.8935   C.2       1 1      0.0000
    34 C34     -1.5533   3.2336   0.1963   C.3       1 1      0.0000
    35 H35     -1.9792   3.7248  -0.6873   H         1 1      0.0000
    36 H36     -2.3154   3.2464   0.9852   H         1 1      0.0000
    37 OL3     -1.3741   1.2855   2.0352   O.2       1 1      0.0000
    38 OL4     -1.1788   1.8605  -0.1211   O.3       1 1      0.0000
    39 C39     -0.3393   3.9512   0.6456   C.3       1 1      0.0000
    40 H40      0.4187   3.9529  -0.1348   H         1 1      0.0000
    41 H41     -0.5720   4.9845   0.8944   H         1 1      0.0000
    42 H42      0.0843   3.4772   1.5285   H         1 1      0.0000
@<TRIPOS>BOND
     1     1     2   ar
     2     1     6   ar
     3     1    11    1
     4     2     3   ar
     5     2     7    1
     6     3     4   ar
     7     3     8    1
     8     4     5   ar
     9     4    14    1
    10     5     6   ar
    11     5     9    1
    12     6    10    1
    13    11    12    2
    14    11    13    2
    15    14    15    1
    16    14    23    1
    17    14    33    1
    18    15    16    1
    19    15    17    1
    20    15    18    1
    21    18    19    1
    22    18    25    1
    23    18    31    1
    24    19    20    1
    25    19    21    1
    26    19    22    1
    27    23    24    1
    28    25    26    1
    29    25    27    1
    30    27    28    1
    31    27    29    1
    32    27    30    1
    33    31    32    1
    34    33    37    2
    35    33    38    1
    36    34    35    1
    37    34    36    1
    38    34    38    1
    39    34    39    1
    40    39    40    1
    41    39    41    1
    42    39    42    1
@<TRIPOS>SUBSTRUCTURE
     1 1           1 GROUP             0 ****  ****    0  
@<TRIPOS>MOLECULE
Molecule Name_00045
    42    42     1     0     0
SMALL
NO_CHARGES
****
Generated from the CSD

@<TRIPOS>ATOM
     1 C1       3.4245  -0.3218  -0.1804   C.ar      1 1      0.0000
     2 C2       2.5911   0.0444  -1.2137   C.ar      1 1      0.0000
     3 C3       1.2257   0.0472  -0.9929   C.ar      1 1      0.0000
     4 C4       0.6895  -0.3117   0.2387   C.ar      1 1      0.0000
     5 C5       1.5677  -0.6711   1.2550   C.ar      1 1      0.0000
     6 C6       2.9363  -0.6808   1.0563   C.ar      1 1      0.0000
     7 H7       2.9968   0.3249  -2.1802   H         1 1      0.0000
     8 H8       0.5635   0.3371  -1.8014   H         1 1      0.0000
     9 H9       1.1754  -0.9503   2.2272   H         1 1      0.0000
    10 H10      3.6108  -0.9649   1.8574   H         1 1      0.0000
    11 N11      4.8753  -0.3296  -0.4035   N.pl3     1 1      0.0000
    12 O12      5.6010  -0.6566   0.5226   O.2       1 1      0.0000
    13 O13      5.2926  -0.0086  -1.5054   O.2       1 1      0.0000
    14 CL3     -0.8220  -0.3167   0.4721   C.3       1 1      0.0000
    15 CL1     -1.5778  -0.7249  -0.8242   C.3       1 1      0.0000
    16 H16     -1.3562   0.0114  -1.6062   H         1 1      0.0000
    17 H17     -1.1762  -1.6855  -1.1695   H         1 1      0.0000
    18 CL      -3.1059  -0.8613  -0.7034   C.3       1 1      0.0000
    19 CL2     -3.6810  -1.1956  -2.0676   C.3       1 1      0.0000
    20 H20     -4.7623  -1.3038  -2.0143   H         1 1      0.0000
    21 H21     -3.4539  -0.4097  -2.7850   H         1 1      0.0000
    22 H22     -3.2652  -2.1281  -2.4435   H         1 1      0.0000
    23 OL2     -1.0959  -1.2280   1.5290   O.3       1 1      0.0000
    24 H24     -2.0651  -1.2212   1.7259   H         1 1      0.0000
    25 N25     -3.4446  -1.9218   0.2090   N.3       1 1      0.0000
    26 H26     -4.4626  -1.9581   0.2607   H         1 1      0.0000
    27 C27     -2.9840  -3.2682  -0.1347   C.3       1 1      0.0000
    28 H28     -1.8987  -3.2981  -0.2056   H         1 1      0.0000
    29 H29     -3.2942  -3.9866   0.6212   H         1 1      0.0000
    30 H30     -3.3950  -3.5840  -1.0913   H         1 1      0.0000
    31 OL1     -3.6617   0.3860  -0.3045   O.3       1 1      0.0000
    32 H32     -4.6459   0.3054  -0.2516   H         1 1      0.0000
    33 CL4     -1.1687   1.1199   0.9113   C.2       1 1      0.0000
    34 C34     -1.5101   3.3485   0.1744   C.3       1 1      0.0000
    35 H35     -1.9256   3.8388  -0.7147   H         1 1      0.0000
    36 H36     -2.2630   3.4064   0.9700   H         1 1      0.0000
    37 OL3     -1.3879   1.4309   2.0496   O.2       1 1      0.0000
    38 OL4     -1.1925   1.9560  -0.1194   O.3       1 1      0.0000
    39 C39     -0.2647   4.0268   0.5979   C.3       1 1      0.0000
    40 H40      0.4849   3.9839  -0.1896   H         1 1      0.0000
    41 H41     -0.4545   5.0730   0.8284   H         1 1      0.0000
    42 H42      0.1493   3.5538   1.4860   H         1 1      0.0000
@<TRIPOS>BOND
     1     1     2   ar
     2     1     6   ar
     3     1    11    1
     4     2     3   ar
     5     2     7    1
     6     3     4   ar
     7     3     8    1
     8     4     5   ar
     9     4    14    1
    10     5     6   ar
    11     5     9    1
    12     6    10    1
    13    11    12    2
    14    11    13    2
    15    14    15    1
    16    14    23    1
    17    14    33    1
    18    15    16    1
    19    15    17    1
    20    15    18    1
    21    18    19    1
    22    18    25    1
    23    18    31    1
    24    19    20    1
    25    19    21    1
    26    19    22    1
    27    23    24    1
    28    25    26    1
    29    25    27    1
    30    27    28    1
    31    27    29    1
    32    27    30    1
    33    31    32    1
    34    33    37    2
    35    33    38    1
    36    34    35    1
    37    34    36    1
    38    34    38    1
    39    34    39    1
    40    39    40    1
    41    39    41    1
    42    39    42    1
@<TRIPOS>SUBSTRUCTURE
     1 1           1 GROUP             0 ****  ****    0  
@<TRIPOS>MOLECULE
Molecule Name_00046
    42    42     1     0     0
SMALL
NO_CHARGES
****
Generated from the CSD

@<TRIPOS>ATOM
     1 C1       3.6561  -0.3597  -0.1737   C.ar      1 1      0.0000
     2 C2       2.8279   0.0994  -1.1737   C.ar      1 1      0.0000
     3 C3       1.4601   0.0493  -0.9747   C.ar      1 1      0.0000
     4 C4       0.9163  -0.4530   0.2023   C.ar      1 1      0.0000
     5 C5       1.7893  -0.9025   1.1867   C.ar      1 1      0.0000
     6 C6       3.1603  -0.8616   1.0090   C.ar      1 1      0.0000
     7 H7       3.2395   0.4921  -2.0976   H         1 1      0.0000
     8 H8       0.8019   0.4117  -1.7568   H         1 1      0.0000
     9 H9       1.3910  -1.2943   2.1167   H         1 1      0.0000
    10 H10      3.8306  -1.2172   1.7846   H         1 1      0.0000
    11 N11      5.1094  -0.3125  -0.3742   N.pl3     1 1      0.0000
    12 O12      5.8304  -0.7232   0.5217   O.2       1 1      0.0000
    13 O13      5.5334   0.1355  -1.4282   O.2       1 1      0.0000
    14 CL3     -0.5975  -0.5153   0.4107   C.3       1 1      0.0000
    15 CL1     -1.3271  -0.7964  -0.9335   C.3       1 1      0.0000
    16 H16     -1.1087   0.0227  -1.6293   H         1 1      0.0000
    17 H17     -0.9024  -1.7076  -1.3724   H         1 1      0.0000
    18 CL      -2.8538  -0.9716  -0.8523   C.3       1 1      0.0000
    19 CL2     -3.1656  -2.2088  -0.0303   C.3       1 1      0.0000
    20 H20     -4.1113  -2.6491  -0.3395   H         1 1      0.0000
    21 H21     -2.3868  -2.9588  -0.1516   H         1 1      0.0000
    22 H22     -3.2364  -1.9616   1.0269   H         1 1      0.0000
    23 OL2     -0.8642  -1.5415   1.3585   O.3       1 1      0.0000
    24 H24     -1.5457  -1.2256   2.0019   H         1 1      0.0000
    25 N25     -3.4565   0.1679  -0.2118   N.3       1 1      0.0000
    26 H26     -3.2135   0.9872  -0.7686   H         1 1      0.0000
    27 C27     -4.9138   0.1600  -0.0730   C.3       1 1      0.0000
    28 H28     -5.2406  -0.6948   0.5154   H         1 1      0.0000
    29 H29     -5.2589   1.0647   0.4231   H         1 1      0.0000
    30 H30     -5.3938   0.1039  -1.0478   H         1 1      0.0000
    31 OL1     -3.3747  -1.1894  -2.1581   O.3       1 1      0.0000
    32 H32     -4.3490  -1.3495  -2.1008   H         1 1      0.0000
    33 CL4     -0.9823   0.8576   0.9974   C.2       1 1      0.0000
    34 C34     -1.3647   3.1452   0.5007   C.3       1 1      0.0000
    35 H35     -0.9439   3.3437   1.4941   H         1 1      0.0000
    36 H36     -0.9523   3.8899  -0.1913   H         1 1      0.0000
    37 OL3     -1.2231   1.0385   2.1592   O.2       1 1      0.0000
    38 OL4     -1.0118   1.7998   0.0628   O.3       1 1      0.0000
    39 C39     -2.8408   3.2456   0.5406   C.3       1 1      0.0000
    40 H40     -3.2583   2.5175   1.2329   H         1 1      0.0000
    41 H41     -3.1513   4.2371   0.8635   H         1 1      0.0000
    42 H42     -3.2667   3.0608  -0.4434   H         1 1      0.0000
@<TRIPOS>BOND
     1     1     2   ar
     2     1     6   ar
     3     1    11    1
     4     2     3   ar
     5     2     7    1
     6     3     4   ar
     7     3     8    1
     8     4     5   ar
     9     4    14    1
    10     5     6   ar
    11     5     9    1
    12     6    10    1
    13    11    12    2
    14    11    13    2
    15    14    15    1
    16    14    23    1
    17    14    33    1
    18    15    16    1
    19    15    17    1
    20    15    18    1
    21    18    19    1
    22    18    25    1
    23    18    31    1
    24    19    20    1
    25    19    21    1
    26    19    22    1
    27    23    24    1
    28    25    26    1
    29    25    27    1
    30    27    28    1
    31    27    29    1
    32    27    30    1
    33    31    32    1
    34    33    37    2
    35    33    38    1
    36    34    35    1
    37    34    36    1
    38    34    38    1
    39    34    39    1
    40    39    40    1
    41    39    41    1
    42    39    42    1
@<TRIPOS>SUBSTRUCTURE
     1 1           1 GROUP             0 ****  ****    0  
@<TRIPOS>MOLECULE
Molecule Name_00047
    42    42     1     0     0
SMALL
NO_CHARGES
****
Generated from the CSD

@<TRIPOS>ATOM
     1 C1       3.5475  -0.2124  -0.2022   C.ar      1 1      0.0000
     2 C2       2.6917   0.1599  -1.2149   C.ar      1 1      0.0000
     3 C3       1.3294   0.0461  -1.0048   C.ar      1 1      0.0000
     4 C4       0.8183  -0.4342   0.1957   C.ar      1 1      0.0000
     5 C5       1.7183  -0.7953   1.1922   C.ar      1 1      0.0000
     6 C6       3.0844  -0.6896   1.0038   C.ar      1 1      0.0000
     7 H7       3.0778   0.5345  -2.1572   H         1 1      0.0000
     8 H8       0.6495   0.3400  -1.7970   H         1 1      0.0000
     9 H9       1.3455  -1.1681   2.1404   H         1 1      0.0000
    10 H10      3.7761  -0.9764   1.7890   H         1 1      0.0000
    11 N11      4.9955  -0.0970  -0.4143   N.pl3     1 1      0.0000
    12 O12      5.7412  -0.4312   0.4932   O.2       1 1      0.0000
    13 O13      5.3904   0.3279  -1.4888   O.2       1 1      0.0000
    14 CL3     -0.6891  -0.5675   0.4167   C.3       1 1      0.0000
    15 CL1     -1.4089  -0.9429  -0.9097   C.3       1 1      0.0000
    16 H16     -1.2374  -0.1434  -1.6405   H         1 1      0.0000
    17 H17     -0.9383  -1.8481  -1.3130   H         1 1      0.0000
    18 CL      -2.9238  -1.1950  -0.8110   C.3       1 1      0.0000
    19 CL2     -3.1658  -2.4113   0.0640   C.3       1 1      0.0000
    20 H20     -4.0875  -2.9142  -0.2211   H         1 1      0.0000
    21 H21     -2.3483  -3.1230  -0.0303   H         1 1      0.0000
    22 H22     -3.2460  -2.1239   1.1103   H         1 1      0.0000
    23 OL2     -0.8968  -1.5656   1.4083   O.3       1 1      0.0000
    24 H24     -1.5874  -1.2571   2.0455   H         1 1      0.0000
    25 N25     -3.5831  -0.0630  -0.2145   N.3       1 1      0.0000
    26 H26     -3.3865   0.7439  -0.8067   H         1 1      0.0000
    27 C27     -5.0373  -0.1420  -0.0657   C.3       1 1      0.0000
    28 H28     -5.3157  -0.9874   0.5600   H         1 1      0.0000
    29 H29     -5.4276   0.7633   0.3946   H         1 1      0.0000
    30 H30     -5.5181  -0.2642  -1.0341   H         1 1      0.0000
    31 OL1     -3.4382  -1.4946  -2.1030   O.3       1 1      0.0000
    32 H32     -4.4024  -1.7033  -2.0326   H         1 1      0.0000
    33 CL4     -1.1435   0.8066   0.9481   C.2       1 1      0.0000
    34 C34     -1.6488   3.0480   0.3589   C.3       1 1      0.0000
    35 H35     -2.0975   3.5645  -0.4986   H         1 1      0.0000
    36 H36     -2.4061   2.9960   1.1509   H         1 1      0.0000
    37 OL3     -1.3884   1.0233   2.1029   O.2       1 1      0.0000
    38 OL4     -1.2271   1.7059  -0.0247   O.3       1 1      0.0000
    39 C39     -0.4588   3.7872   0.8362   C.3       1 1      0.0000
    40 H40      0.2939   3.8532   0.0534   H         1 1      0.0000
    41 H41     -0.7270   4.7986   1.1346   H         1 1      0.0000
    42 H42     -0.0129   3.2879   1.6939   H         1 1      0.0000
@<TRIPOS>BOND
     1     1     2   ar
     2     1     6   ar
     3     1    11    1
     4     2     3   ar
     5     2     7    1
     6     3     4   ar
     7     3     8    1
     8     4     5   ar
     9     4    14    1
    10     5     6   ar
    11     5     9    1
    12     6    10    1
    13    11    12    2
    14    11    13    2
    15    14    15    1
    16    14    23    1
    17    14    33    1
    18    15    16    1
    19    15    17    1
    20    15    18    1
    21    18    19    1
    22    18    25    1
    23    18    31    1
    24    19    20    1
    25    19    21    1
    26    19    22    1
    27    23    24    1
    28    25    26    1
    29    25    27    1
    30    27    28    1
    31    27    29    1
    32    27    30    1
    33    31    32    1
    34    33    37    2
    35    33    38    1
    36    34    35    1
    37    34    36    1
    38    34    38    1
    39    34    39    1
    40    39    40    1
    41    39    41    1
    42    39    42    1
@<TRIPOS>SUBSTRUCTURE
     1 1           1 GROUP             0 ****  ****    0  
@<TRIPOS>MOLECULE
Molecule Name_00048
    42    42     1     0     0
SMALL
NO_CHARGES
****
Generated from the CSD

@<TRIPOS>ATOM
     1 C1       3.5280  -0.2386  -0.1036   C.ar      1 1      0.0000
     2 C2       2.6690  -0.1048  -1.1717   C.ar      1 1      0.0000
     3 C3       1.3070  -0.1289  -0.9321   C.ar      1 1      0.0000
     4 C4       0.7993  -0.2865   0.3527   C.ar      1 1      0.0000
     5 C5       1.7025  -0.4145   1.4020   C.ar      1 1      0.0000
     6 C6       3.0683  -0.3930   1.1854   C.ar      1 1      0.0000
     7 H7       3.0524   0.0170  -2.1794   H         1 1      0.0000
     8 H8       0.6246  -0.0214  -1.7682   H         1 1      0.0000
     9 H9       1.3325  -0.5333   2.4149   H         1 1      0.0000
    10 H10      3.7625  -0.4956   2.0129   H         1 1      0.0000
    11 N11      4.9755  -0.2156  -0.3460   N.pl3     1 1      0.0000
    12 O12      5.7241  -0.3354   0.6114   O.2       1 1      0.0000
    13 O13      5.3673  -0.0777  -1.4944   O.2       1 1      0.0000
    14 CL3     -0.7081  -0.3231   0.6085   C.3       1 1      0.0000
    15 CL1     -1.4528  -0.9879  -0.5839   C.3       1 1      0.0000
    16 H16     -1.3409  -0.3487  -1.4679   H         1 1      0.0000
    17 H17     -0.9556  -1.9383  -0.8142   H         1 1      0.0000
    18 CL      -2.9510  -1.2706  -0.3746   C.3       1 1      0.0000
    19 CL2     -3.6577   0.0317  -0.0457   C.3       1 1      0.0000
    20 H20     -4.7304  -0.0616  -0.2017   H         1 1      0.0000
    21 H21     -3.4892   0.3105   0.9923   H         1 1      0.0000
    22 H22     -3.2924   0.8389  -0.6771   H         1 1      0.0000
    23 OL2     -0.9275  -1.0472   1.8126   O.3       1 1      0.0000
    24 H24     -1.8942  -1.0525   2.0215   H         1 1      0.0000
    25 N25     -3.5311  -1.8166  -1.5734   N.3       1 1      0.0000
    26 H26     -3.0095  -2.6637  -1.7991   H         1 1      0.0000
    27 C27     -4.9467  -2.1856  -1.5197   C.3       1 1      0.0000
    28 H28     -5.5759  -1.2983  -1.4964   H         1 1      0.0000
    29 H29     -5.2248  -2.7756  -2.3905   H         1 1      0.0000
    30 H30     -5.1582  -2.7746  -0.6297   H         1 1      0.0000
    31 OL1     -3.1172  -2.1355   0.7426   O.3       1 1      0.0000
    32 H32     -4.0809  -2.2339   0.9416   H         1 1      0.0000
    33 CL4     -1.1229   1.1499   0.7958   C.2       1 1      0.0000
    34 C34     -1.5439   3.2061  -0.3094   C.3       1 1      0.0000
    35 H35     -1.9631   3.5214  -1.2729   H         1 1      0.0000
    36 H36     -2.3133   3.3628   0.4567   H         1 1      0.0000
    37 OL3     -1.3761   1.6372   1.8630   O.2       1 1      0.0000
    38 OL4     -1.1627   1.7995  -0.3612   O.3       1 1      0.0000
    39 C39     -0.3362   4.0005   0.0079   C.3       1 1      0.0000
    40 H40      0.4290   3.8596  -0.7527   H         1 1      0.0000
    41 H41     -0.5740   5.0611   0.0569   H         1 1      0.0000
    42 H42      0.0807   3.7019   0.9675   H         1 1      0.0000
@<TRIPOS>BOND
     1     1     2   ar
     2     1     6   ar
     3     1    11    1
     4     2     3   ar
     5     2     7    1
     6     3     4   ar
     7     3     8    1
     8     4     5   ar
     9     4    14    1
    10     5     6   ar
    11     5     9    1
    12     6    10    1
    13    11    12    2
    14    11    13    2
    15    14    15    1
    16    14    23    1
    17    14    33    1
    18    15    16    1
    19    15    17    1
    20    15    18    1
    21    18    19    1
    22    18    25    1
    23    18    31    1
    24    19    20    1
    25    19    21    1
    26    19    22    1
    27    23    24    1
    28    25    26    1
    29    25    27    1
    30    27    28    1
    31    27    29    1
    32    27    30    1
    33    31    32    1
    34    33    37    2
    35    33    38    1
    36    34    35    1
    37    34    36    1
    38    34    38    1
    39    34    39    1
    40    39    40    1
    41    39    41    1
    42    39    42    1
@<TRIPOS>SUBSTRUCTURE
     1 1           1 GROUP             0 ****  ****    0  
@<TRIPOS>MOLECULE
Molecule Name_00049
    42    42     1     0     0
SMALL
NO_CHARGES
****
Generated from the CSD

@<TRIPOS>ATOM
     1 C1       3.4578  -0.3143  -0.0904   C.ar      1 1      0.0000
     2 C2       2.5786  -0.2523  -1.1486   C.ar      1 1      0.0000
     3 C3       1.2215  -0.2527  -0.8818   C.ar      1 1      0.0000
     4 C4       0.7383  -0.3163   0.4204   C.ar      1 1      0.0000
     5 C5       1.6614  -0.3740   1.4587   C.ar      1 1      0.0000
     6 C6       3.0228  -0.3747   1.2148   C.ar      1 1      0.0000
     7 H7       2.9427  -0.2042  -2.1696   H         1 1      0.0000
     8 H8       0.5233  -0.2014  -1.7102   H         1 1      0.0000
     9 H9       1.3108  -0.4190   2.4844   H         1 1      0.0000
    10 H10      3.7326  -0.4217   2.0341   H         1 1      0.0000
    11 N11      4.9004  -0.3157  -0.3616   N.pl3     1 1      0.0000
    12 O12      5.6670  -0.3710   0.5873   O.2       1 1      0.0000
    13 O13      5.2702  -0.2615  -1.5242   O.2       1 1      0.0000
    14 CL3     -0.7639  -0.3273   0.7070   C.3       1 1      0.0000
    15 CL1     -1.5341  -1.0712  -0.4206   C.3       1 1      0.0000
    16 H16     -1.4361  -0.4974  -1.3500   H         1 1      0.0000
    17 H17     -1.0456  -2.0385  -0.5915   H         1 1      0.0000
    18 CL      -3.0292  -1.3296  -0.1637   C.3       1 1      0.0000
    19 CL2     -3.7246  -0.0028   0.0803   C.3       1 1      0.0000
    20 H20     -4.7987  -0.0980  -0.0642   H         1 1      0.0000
    21 H21     -3.5487   0.3437   1.0965   H         1 1      0.0000
    22 H22     -3.3564   0.7574  -0.6055   H         1 1      0.0000
    23 OL2     -0.9623  -0.9631   1.9636   O.3       1 1      0.0000
    24 H24     -1.9248  -0.9488   2.1908   H         1 1      0.0000
    25 N25     -3.6336  -1.9600  -1.3079   N.3       1 1      0.0000
    26 H26     -4.6145  -2.1193  -1.0783   H         1 1      0.0000
    27 C27     -3.6030  -1.2188  -2.5699   C.3       1 1      0.0000
    28 H28     -2.5779  -1.0269  -2.8798   H         1 1      0.0000
    29 H29     -4.0961  -1.7816  -3.3598   H         1 1      0.0000
    30 H30     -4.1109  -0.2620  -2.4677   H         1 1      0.0000
    31 OL1     -3.1781  -2.1083   1.0175   O.3       1 1      0.0000
    32 H32     -4.1400  -2.2529   1.1968   H         1 1      0.0000
    33 CL4     -1.1697   1.1574   0.7973   C.2       1 1      0.0000
    34 C34     -1.5995   3.1335  -0.4423   C.3       1 1      0.0000
    35 H35     -2.0323   3.3829  -1.4190   H         1 1      0.0000
    36 H36     -2.3562   3.3473   0.3226   H         1 1      0.0000
    37 OL3     -1.4043   1.7193   1.8316   O.2       1 1      0.0000
    38 OL4     -1.2249   1.7249  -0.4015   O.3       1 1      0.0000
    39 C39     -0.3837   3.9419  -0.1997   C.3       1 1      0.0000
    40 H40      0.3689   3.7443  -0.9601   H         1 1      0.0000
    41 H41     -0.6165   5.0045  -0.2213   H         1 1      0.0000
    42 H42      0.0468   3.7089   0.7719   H         1 1      0.0000
@<TRIPOS>BOND
     1     1     2   ar
     2     1     6   ar
     3     1    11    1
     4     2     3   ar
     5     2     7    1
     6     3     4   ar
     7     3     8    1
     8     4     5   ar
     9     4    14    1
    10     5     6   ar
    11     5     9    1
    12     6    10    1
    13    11    12    2
    14    11    13    2
    15    14    15    1
    16    14    23    1
    17    14    33    1
    18    15    16    1
    19    15    17    1
    20    15    18    1
    21    18    19    1
    22    18    25    1
    23    18    31    1
    24    19    20    1
    25    19    21    1
    26    19    22    1
    27    23    24    1
    28    25    26    1
    29    25    27    1
    30    27    28    1
    31    27    29    1
    32    27    30    1
    33    31    32    1
    34    33    37    2
    35    33    38    1
    36    34    35    1
    37    34    36    1
    38    34    38    1
    39    34    39    1
    40    39    40    1
    41    39    41    1
    42    39    42    1
@<TRIPOS>SUBSTRUCTURE
     1 1           1 GROUP             0 ****  ****    0  
@<TRIPOS>MOLECULE
Molecule Name_00050
    42    42     1     0     0
SMALL
NO_CHARGES
****
Generated from the CSD

@<TRIPOS>ATOM
     1 C1       3.4263  -0.3291  -0.1042   C.ar      1 1      0.0000
     2 C2       2.5627  -0.1856  -1.1673   C.ar      1 1      0.0000
     3 C3       1.2032  -0.1520  -0.9150   C.ar      1 1      0.0000
     4 C4       0.7024  -0.2620   0.3774   C.ar      1 1      0.0000
     5 C5       1.6103  -0.4018   1.4212   C.ar      1 1      0.0000
     6 C6       2.9738  -0.4377   1.1919   C.ar      1 1      0.0000
     7 H7       2.9405  -0.1006  -2.1808   H         1 1      0.0000
     8 H8       0.5173  -0.0365  -1.7471   H         1 1      0.0000
     9 H9       1.2460  -0.4843   2.4398   H         1 1      0.0000
    10 H10      3.6716  -0.5488   2.0152   H         1 1      0.0000
    11 N11      4.8713  -0.3671  -0.3601   N.pl3     1 1      0.0000
    12 O12      5.6240  -0.4948   0.5929   O.2       1 1      0.0000
    13 O13      5.2568  -0.2695  -1.5147   O.2       1 1      0.0000
    14 CL3     -0.8027  -0.2350   0.6475   C.3       1 1      0.0000
    15 CL1     -1.5840  -0.8964  -0.5231   C.3       1 1      0.0000
    16 H16     -1.4554  -0.2819  -1.4223   H         1 1      0.0000
    17 H17     -1.1265  -1.8705  -0.7360   H         1 1      0.0000
    18 CL      -3.0900  -1.1152  -0.2948   C.3       1 1      0.0000
    19 CL2     -3.7428   0.2214   0.0066   C.3       1 1      0.0000
    20 H20     -4.8178   0.1704  -0.1535   H         1 1      0.0000
    21 H21     -3.5675   0.5118   1.0404   H         1 1      0.0000
    22 H22     -3.3409   1.0009  -0.6372   H         1 1      0.0000
    23 OL2     -1.0378  -0.9237   1.8693   O.3       1 1      0.0000
    24 H24     -2.0019  -0.8873   2.0869   H         1 1      0.0000
    25 N25     -3.7016  -1.6680  -1.4747   N.3       1 1      0.0000
    26 H26     -3.5648  -0.9927  -2.2269   H         1 1      0.0000
    27 C27     -3.1863  -2.9524  -1.9521   C.3       1 1      0.0000
    28 H28     -3.3036  -3.7217  -1.1917   H         1 1      0.0000
    29 H29     -3.7191  -3.2741  -2.8445   H         1 1      0.0000
    30 H30     -2.1290  -2.8768  -2.1974   H         1 1      0.0000
    31 OL1     -3.2796  -1.9448   0.8452   O.3       1 1      0.0000
    32 H32     -4.2478  -2.0646   1.0072   H         1 1      0.0000
    33 CL4     -1.1589   1.2567   0.8059   C.2       1 1      0.0000
    34 C34     -1.5063   3.3042  -0.3401   C.3       1 1      0.0000
    35 H35     -1.9186   3.6155  -1.3079   H         1 1      0.0000
    36 H36     -2.2645   3.5067   0.4264   H         1 1      0.0000
    37 OL3     -1.3867   1.7755   1.8639   O.2       1 1      0.0000
    38 OL4     -1.1802   1.8831  -0.3642   O.3       1 1      0.0000
    39 C39     -0.2668   4.0575  -0.0456   C.3       1 1      0.0000
    40 H40      0.4879   3.8711  -0.8069   H         1 1      0.0000
    41 H41     -0.4630   5.1273  -0.0177   H         1 1      0.0000
    42 H42      0.1438   3.7629   0.9179   H         1 1      0.0000
@<TRIPOS>BOND
     1     1     2   ar
     2     1     6   ar
     3     1    11    1
     4     2     3   ar
     5     2     7    1
     6     3     4   ar
     7     3     8    1
     8     4     5   ar
     9     4    14    1
    10     5     6   ar
    11     5     9    1
    12     6    10    1
    13    11    12    2
    14    11    13    2
    15    14    15    1
    16    14    23    1
    17    14    33    1
    18    15    16    1
    19    15    17    1
    20    15    18    1
    21    18    19    1
    22    18    25    1
    23    18    31    1
    24    19    20    1
    25    19    21    1
    26    19    22    1
    27    23    24    1
    28    25    26    1
    29    25    27    1
    30    27    28    1
    31    27    29    1
    32    27    30    1
    33    31    32    1
    34    33    37    2
    35    33    38    1
    36    34    35    1
    37    34    36    1
    38    34    38    1
    39    34    39    1
    40    39    40    1
    41    39    41    1
    42    39    42    1
@<TRIPOS>SUBSTRUCTURE
     1 1           1 GROUP             0 ****  ****    0  
@<TRIPOS>MOLECULE
Molecule Name_00051
    42    42     1     0     0
SMALL
NO_CHARGES
****
Generated from the CSD

@<TRIPOS>ATOM
     1 C1       3.6326  -0.3826  -0.0758   C.ar      1 1      0.0000
     2 C2       2.7893  -0.1781  -1.1452   C.ar      1 1      0.0000
     3 C3       1.4262  -0.1391  -0.9145   C.ar      1 1      0.0000
     4 C4       0.9017  -0.3034   0.3627   C.ar      1 1      0.0000
     5 C5       1.7896  -0.5037   1.4138   C.ar      1 1      0.0000
     6 C6       3.1563  -0.5462   1.2060   C.ar      1 1      0.0000
     7 H7       3.1858  -0.0504  -2.1471   H         1 1      0.0000
     8 H8       0.7563   0.0242  -1.7517   H         1 1      0.0000
     9 H9       1.4066  -0.6294   2.4210   H         1 1      0.0000
    10 H10      3.8383  -0.7050   2.0347   H         1 1      0.0000
    11 N11      5.0812  -0.4271  -0.3088   N.pl3     1 1      0.0000
    12 O12      5.8157  -0.6091   0.6496   O.2       1 1      0.0000
    13 O13      5.4879  -0.2801  -1.4508   O.2       1 1      0.0000
    14 CL3     -0.6074  -0.2698   0.6084   C.3       1 1      0.0000
    15 CL1     -1.3761  -0.8653  -0.6052   C.3       1 1      0.0000
    16 H16     -1.2303  -0.2071  -1.4702   H         1 1      0.0000
    17 H17     -0.9223  -1.8308  -0.8607   H         1 1      0.0000
    18 CL      -2.8868  -1.0840  -0.4096   C.3       1 1      0.0000
    19 CL2     -3.5352   0.2410  -0.0526   C.3       1 1      0.0000
    20 H20     -4.6112   0.1981  -0.2081   H         1 1      0.0000
    21 H21     -3.3532   0.4908   0.9905   H         1 1      0.0000
    22 H22     -3.1355   1.0442  -0.6682   H         1 1      0.0000
    23 OL2     -0.8720  -1.0122   1.7921   O.3       1 1      0.0000
    24 H24     -1.8392  -0.9737   1.9949   H         1 1      0.0000
    25 N25     -3.4844  -1.5741  -1.6239   N.3       1 1      0.0000
    26 H26     -3.0012  -2.4388  -1.8672   H         1 1      0.0000
    27 C27     -4.9159  -1.8785  -1.5856   C.3       1 1      0.0000
    28 H28     -5.5035  -0.9640  -1.5400   H         1 1      0.0000
    29 H29     -5.2166  -2.4307  -2.4735   H         1 1      0.0000
    30 H30     -5.1588  -2.4813  -0.7131   H         1 1      0.0000
    31 OL1     -3.0986  -1.9669   0.6856   O.3       1 1      0.0000
    32 H32     -4.0672  -2.0284   0.8756   H         1 1      0.0000
    33 CL4     -0.9485   1.2172   0.8312   C.2       1 1      0.0000
    34 C34     -1.2244   3.3259  -0.2194   C.3       1 1      0.0000
    35 H35     -0.7716   3.7433   0.6885   H         1 1      0.0000
    36 H36     -0.7913   3.8506  -1.0799   H         1 1      0.0000
    37 OL3     -1.1825   1.6898   1.9093   O.2       1 1      0.0000
    38 OL4     -0.9492   1.8968  -0.3092   O.3       1 1      0.0000
    39 C39     -2.6923   3.5127  -0.1917   C.3       1 1      0.0000
    40 H40     -3.1314   2.9925   0.6570   H         1 1      0.0000
    41 H41     -2.9454   4.5677  -0.1105   H         1 1      0.0000
    42 H42     -3.1478   3.1239  -1.1001   H         1 1      0.0000
@<TRIPOS>BOND
     1     1     2   ar
     2     1     6   ar
     3     1    11    1
     4     2     3   ar
     5     2     7    1
     6     3     4   ar
     7     3     8    1
     8     4     5   ar
     9     4    14    1
    10     5     6   ar
    11     5     9    1
    12     6    10    1
    13    11    12    2
    14    11    13    2
    15    14    15    1
    16    14    23    1
    17    14    33    1
    18    15    16    1
    19    15    17    1
    20    15    18    1
    21    18    19    1
    22    18    25    1
    23    18    31    1
    24    19    20    1
    25    19    21    1
    26    19    22    1
    27    23    24    1
    28    25    26    1
    29    25    27    1
    30    27    28    1
    31    27    29    1
    32    27    30    1
    33    31    32    1
    34    33    37    2
    35    33    38    1
    36    34    35    1
    37    34    36    1
    38    34    38    1
    39    34    39    1
    40    39    40    1
    41    39    41    1
    42    39    42    1
@<TRIPOS>SUBSTRUCTURE
     1 1           1 GROUP             0 ****  ****    0  
@<TRIPOS>MOLECULE
Molecule Name_00052
    42    42     1     0     0
SMALL
NO_CHARGES
****
Generated from the CSD

@<TRIPOS>ATOM
     1 C1       3.5584  -0.4613  -0.0627   C.ar      1 1      0.0000
     2 C2       2.6928  -0.3310  -1.1259   C.ar      1 1      0.0000
     3 C3       1.3353  -0.2656  -0.8694   C.ar      1 1      0.0000
     4 C4       0.8383  -0.3313   0.4276   C.ar      1 1      0.0000
     5 C5       1.7481  -0.4593   1.4712   C.ar      1 1      0.0000
     6 C6       3.1096  -0.5264   1.2376   C.ar      1 1      0.0000
     7 H7       3.0677  -0.2804  -2.1429   H         1 1      0.0000
     8 H8       0.6479  -0.1602  -1.7016   H         1 1      0.0000
     9 H9       1.3868  -0.5074   2.4931   H         1 1      0.0000
    10 H10      3.8090  -0.6279   2.0609   H         1 1      0.0000
    11 N11      5.0012  -0.5328  -0.3231   N.pl3     1 1      0.0000
    12 O12      5.7557  -0.6484   0.6301   O.2       1 1      0.0000
    13 O13      5.3834  -0.4736  -1.4814   O.2       1 1      0.0000
    14 CL3     -0.6648  -0.2693   0.7027   C.3       1 1      0.0000
    15 CL1     -1.4632  -0.9478  -0.4465   C.3       1 1      0.0000
    16 H16     -1.3324  -0.3570  -1.3611   H         1 1      0.0000
    17 H17     -1.0207  -1.9330  -0.6388   H         1 1      0.0000
    18 CL      -2.9705  -1.1401  -0.2030   C.3       1 1      0.0000
    19 CL2     -3.6040   0.2130   0.0639   C.3       1 1      0.0000
    20 H20     -4.6815   0.1696  -0.0805   H         1 1      0.0000
    21 H21     -3.4116   0.5342   1.0854   H         1 1      0.0000
    22 H22     -3.2018   0.9667  -0.6098   H         1 1      0.0000
    23 OL2     -0.9071  -0.9203   1.9437   O.3       1 1      0.0000
    24 H24     -1.8694  -0.8602   2.1639   H         1 1      0.0000
    25 N25     -3.5966  -1.7184  -1.3630   N.3       1 1      0.0000
    26 H26     -4.5855  -1.8354  -1.1420   H         1 1      0.0000
    27 C27     -3.5228  -0.9546  -2.6097   C.3       1 1      0.0000
    28 H28     -2.4877  -0.8059  -2.9101   H         1 1      0.0000
    29 H29     -4.0372  -1.4773  -3.4133   H         1 1      0.0000
    30 H30     -3.9850   0.0232  -2.4909   H         1 1      0.0000
    31 OL1     -3.1636  -1.9343   0.9614   O.3       1 1      0.0000
    32 H32     -4.1323  -2.0367   1.1325   H         1 1      0.0000
    33 CL4     -0.9932   1.2324   0.8218   C.2       1 1      0.0000
    34 C34     -1.2743   3.2607  -0.3753   C.3       1 1      0.0000
    35 H35     -0.8021   3.7398   0.4913   H         1 1      0.0000
    36 H36     -0.8537   3.7176  -1.2796   H         1 1      0.0000
    37 OL3     -1.2051   1.7842   1.8663   O.2       1 1      0.0000
    38 OL4     -1.0104   1.8267  -0.3650   O.3       1 1      0.0000
    39 C39     -2.7402   3.4608  -0.3351   C.3       1 1      0.0000
    40 H40     -3.1666   3.0100   0.5586   H         1 1      0.0000
    41 H41     -2.9848   4.5210  -0.3296   H         1 1      0.0000
    42 H42     -3.2152   3.0079  -1.2029   H         1 1      0.0000
@<TRIPOS>BOND
     1     1     2   ar
     2     1     6   ar
     3     1    11    1
     4     2     3   ar
     5     2     7    1
     6     3     4   ar
     7     3     8    1
     8     4     5   ar
     9     4    14    1
    10     5     6   ar
    11     5     9    1
    12     6    10    1
    13    11    12    2
    14    11    13    2
    15    14    15    1
    16    14    23    1
    17    14    33    1
    18    15    16    1
    19    15    17    1
    20    15    18    1
    21    18    19    1
    22    18    25    1
    23    18    31    1
    24    19    20    1
    25    19    21    1
    26    19    22    1
    27    23    24    1
    28    25    26    1
    29    25    27    1
    30    27    28    1
    31    27    29    1
    32    27    30    1
    33    31    32    1
    34    33    37    2
    35    33    38    1
    36    34    35    1
    37    34    36    1
    38    34    38    1
    39    34    39    1
    40    39    40    1
    41    39    41    1
    42    39    42    1
@<TRIPOS>SUBSTRUCTURE
     1 1           1 GROUP             0 ****  ****    0  
@<TRIPOS>MOLECULE
Molecule Name_00053
    42    42     1     0     0
SMALL
NO_CHARGES
****
Generated from the CSD

@<TRIPOS>ATOM
     1 C1       3.5270  -0.4751  -0.0757   C.ar      1 1      0.0000
     2 C2       2.6807  -0.2639  -1.1415   C.ar      1 1      0.0000
     3 C3       1.3227  -0.1660  -0.8983   C.ar      1 1      0.0000
     4 C4       0.8061  -0.2786   0.3877   C.ar      1 1      0.0000
     5 C5       1.6969  -0.4880   1.4346   C.ar      1 1      0.0000
     6 C6       3.0586  -0.5889   1.2144   C.ar      1 1      0.0000
     7 H7       3.0709  -0.1761  -2.1501   H         1 1      0.0000
     8 H8       0.6505   0.0030  -1.7325   H         1 1      0.0000
     9 H9       1.3204  -0.5741   2.4484   H         1 1      0.0000
    10 H10      3.7429  -0.7540   2.0400   H         1 1      0.0000
    11 N11      4.9701  -0.5818  -0.3219   N.pl3     1 1      0.0000
    12 O12      5.7074  -0.7691   0.6334   O.2       1 1      0.0000
    13 O13      5.3698  -0.4786  -1.4712   O.2       1 1      0.0000
    14 CL3     -0.6978  -0.1802   0.6475   C.3       1 1      0.0000
    15 CL1     -1.5022  -0.7745  -0.5434   C.3       1 1      0.0000
    16 H16     -1.3397  -0.1441  -1.4260   H         1 1      0.0000
    17 H17     -1.0895  -1.7632  -0.7789   H         1 1      0.0000
    18 CL      -3.0181  -0.9281  -0.3278   C.3       1 1      0.0000
    19 CL2     -3.6106   0.4307  -0.0019   C.3       1 1      0.0000
    20 H20     -4.6868   0.4304  -0.1613   H         1 1      0.0000
    21 H21     -3.4217   0.6947   1.0365   H         1 1      0.0000
    22 H22     -3.1748   1.2027  -0.6326   H         1 1      0.0000
    23 OL2     -0.9781  -0.8828   1.8517   O.3       1 1      0.0000
    24 H24     -1.9409  -0.8016   2.0631   H         1 1      0.0000
    25 N25     -3.6469  -1.4275  -1.5225   N.3       1 1      0.0000
    26 H26     -3.4744  -0.7438  -2.2595   H         1 1      0.0000
    27 C27     -3.1884  -2.7242  -2.0239   C.3       1 1      0.0000
    28 H28     -3.3459  -3.5028  -1.2805   H         1 1      0.0000
    29 H29     -3.7297  -3.0022  -2.9258   H         1 1      0.0000
    30 H30     -2.1272  -2.6923  -2.2618   H         1 1      0.0000
    31 OL1     -3.2530  -1.7716   0.7934   O.3       1 1      0.0000
    32 H32     -4.2268  -1.8498   0.9476   H         1 1      0.0000
    33 CL4     -0.9784   1.3240   0.8369   C.2       1 1      0.0000
    34 C34     -1.1767   3.4169  -0.2617   C.3       1 1      0.0000
    35 H35     -0.7009   3.8368   0.6332   H         1 1      0.0000
    36 H36     -0.7290   3.9033  -1.1371   H         1 1      0.0000
    37 OL3     -1.1864   1.8306   1.9048   O.2       1 1      0.0000
    38 OL4     -0.9599   1.9761  -0.3192   O.3       1 1      0.0000
    39 C39     -2.6356   3.6635  -0.2293   C.3       1 1      0.0000
    40 H40     -3.0887   3.1841   0.6360   H         1 1      0.0000
    41 H41     -2.8454   4.7297  -0.1745   H         1 1      0.0000
    42 H42     -3.1134   3.2696  -1.1239   H         1 1      0.0000
@<TRIPOS>BOND
     1     1     2   ar
     2     1     6   ar
     3     1    11    1
     4     2     3   ar
     5     2     7    1
     6     3     4   ar
     7     3     8    1
     8     4     5   ar
     9     4    14    1
    10     5     6   ar
    11     5     9    1
    12     6    10    1
    13    11    12    2
    14    11    13    2
    15    14    15    1
    16    14    23    1
    17    14    33    1
    18    15    16    1
    19    15    17    1
    20    15    18    1
    21    18    19    1
    22    18    25    1
    23    18    31    1
    24    19    20    1
    25    19    21    1
    26    19    22    1
    27    23    24    1
    28    25    26    1
    29    25    27    1
    30    27    28    1
    31    27    29    1
    32    27    30    1
    33    31    32    1
    34    33    37    2
    35    33    38    1
    36    34    35    1
    37    34    36    1
    38    34    38    1
    39    34    39    1
    40    39    40    1
    41    39    41    1
    42    39    42    1
@<TRIPOS>SUBSTRUCTURE
     1 1           1 GROUP             0 ****  ****    0  
@<TRIPOS>MOLECULE
Molecule Name_00054
    42    42     1     0     0
SMALL
NO_CHARGES
****
Generated from the CSD

@<TRIPOS>ATOM
     1 C1       3.5726  -0.3658  -0.1705   C.ar      1 1      0.0000
     2 C2       2.9367   0.8374  -0.3817   C.ar      1 1      0.0000
     3 C3       1.5612   0.8910  -0.2473   C.ar      1 1      0.0000
     4 C4       0.8210  -0.2365   0.0906   C.ar      1 1      0.0000
     5 C5       1.5040  -1.4297   0.2982   C.ar      1 1      0.0000
     6 C6       2.8790  -1.5060   0.1693   C.ar      1 1      0.0000
     7 H7       3.5026   1.7241  -0.6476   H         1 1      0.0000
     8 H8       1.0540   1.8358  -0.4094   H         1 1      0.0000
     9 H9       0.9507  -2.3230   0.5679   H         1 1      0.0000
    10 H10      3.3998  -2.4438   0.3324   H         1 1      0.0000
    11 N11      5.0320  -0.4350  -0.3115   N.pl3     1 1      0.0000
    12 O12      5.5811  -1.5089  -0.1210   O.2       1 1      0.0000
    13 O13      5.6327   0.5846  -0.6130   O.2       1 1      0.0000
    14 CL3     -0.7010  -0.1719   0.2267   C.3       1 1      0.0000
    15 CL1     -1.3806  -1.2339  -0.6835   C.3       1 1      0.0000
    16 H16     -1.1494  -0.9992  -1.7296   H         1 1      0.0000
    17 H17     -0.9292  -2.2107  -0.4700   H         1 1      0.0000
    18 CL      -2.9068  -1.3713  -0.5416   C.3       1 1      0.0000
    19 CL2     -3.4182  -2.3216  -1.6088   C.3       1 1      0.0000
    20 H20     -4.5004  -2.4184  -1.5525   H         1 1      0.0000
    21 H21     -3.1615  -1.9600  -2.6024   H         1 1      0.0000
    22 H22     -2.9825  -3.3109  -1.4852   H         1 1      0.0000
    23 OL2     -1.0251  -0.3915   1.5939   O.3       1 1      0.0000
    24 H24     -1.7580   0.2171   1.8597   H         1 1      0.0000
    25 N25     -3.2444  -1.9087   0.7503   N.3       1 1      0.0000
    26 H26     -2.8754  -1.2632   1.4485   H         1 1      0.0000
    27 C27     -4.6669  -2.0917   1.0441   C.3       1 1      0.0000
    28 H28     -5.1207  -2.7838   0.3378   H         1 1      0.0000
    29 H29     -4.8053  -2.4913   2.0466   H         1 1      0.0000
    30 H30     -5.1988  -1.1448   0.9802   H         1 1      0.0000
    31 OL1     -3.5186  -0.1079  -0.7724   O.3       1 1      0.0000
    32 H32     -4.5015  -0.2045  -0.7220   H         1 1      0.0000
    33 CL4     -1.0835   1.2647  -0.1819   C.2       1 1      0.0000
    34 C34     -1.4418   3.4764   0.5966   C.3       1 1      0.0000
    35 H35     -0.7373   3.9146  -0.1210   H         1 1      0.0000
    36 H36     -2.4459   3.5391   0.1594   H         1 1      0.0000
    37 OL3     -1.3395   1.5878  -1.3090   O.2       1 1      0.0000
    38 OL4     -1.0927   2.0856   0.8612   O.3       1 1      0.0000
    39 C39     -1.3942   4.2163   1.8776   C.3       1 1      0.0000
    40 H40     -0.3985   4.1686   2.3137   H         1 1      0.0000
    41 H41     -1.6489   5.2634   1.7279   H         1 1      0.0000
    42 H42     -2.0979   3.7952   2.5926   H         1 1      0.0000
@<TRIPOS>BOND
     1     1     2   ar
     2     1     6   ar
     3     1    11    1
     4     2     3   ar
     5     2     7    1
     6     3     4   ar
     7     3     8    1
     8     4     5   ar
     9     4    14    1
    10     5     6   ar
    11     5     9    1
    12     6    10    1
    13    11    12    2
    14    11    13    2
    15    14    15    1
    16    14    23    1
    17    14    33    1
    18    15    16    1
    19    15    17    1
    20    15    18    1
    21    18    19    1
    22    18    25    1
    23    18    31    1
    24    19    20    1
    25    19    21    1
    26    19    22    1
    27    23    24    1
    28    25    26    1
    29    25    27    1
    30    27    28    1
    31    27    29    1
    32    27    30    1
    33    31    32    1
    34    33    37    2
    35    33    38    1
    36    34    35    1
    37    34    36    1
    38    34    38    1
    39    34    39    1
    40    39    40    1
    41    39    41    1
    42    39    42    1
@<TRIPOS>SUBSTRUCTURE
     1 1           1 GROUP             0 ****  ****    0  
@<TRIPOS>MOLECULE
Molecule Name_00055
    42    42     1     0     0
SMALL
NO_CHARGES
****
Generated from the CSD

@<TRIPOS>ATOM
     1 C1       3.4832  -0.4542  -0.1833   C.ar      1 1      0.0000
     2 C2       2.8946   0.7759  -0.3754   C.ar      1 1      0.0000
     3 C3       1.5224   0.8812  -0.2377   C.ar      1 1      0.0000
     4 C4       0.7391  -0.2214   0.0847   C.ar      1 1      0.0000
     5 C5       1.3753  -1.4433   0.2733   C.ar      1 1      0.0000
     6 C6       2.7460  -1.5714   0.1408   C.ar      1 1      0.0000
     7 H7       3.4943   1.6438  -0.6291   H         1 1      0.0000
     8 H8       1.0523   1.8475  -0.3849   H         1 1      0.0000
     9 H9       0.7878  -2.3183   0.5308   H         1 1      0.0000
    10 H10      3.2300  -2.5311   0.2890   H         1 1      0.0000
    11 N11      4.9387  -0.5781  -0.3279   N.pl3     1 1      0.0000
    12 O12      5.4456  -1.6755  -0.1544   O.2       1 1      0.0000
    13 O13      5.5784   0.4216  -0.6153   O.2       1 1      0.0000
    14 CL3     -0.7790  -0.0995   0.2245   C.3       1 1      0.0000
    15 CL1     -1.5007  -1.1204  -0.7002   C.3       1 1      0.0000
    16 H16     -1.2371  -0.8984  -1.7413   H         1 1      0.0000
    17 H17     -1.1096  -2.1214  -0.4800   H         1 1      0.0000
    18 CL      -3.0346  -1.1710  -0.5870   C.3       1 1      0.0000
    19 CL2     -3.5719  -2.1649  -1.6003   C.3       1 1      0.0000
    20 H20     -4.6565  -2.2273  -1.5418   H         1 1      0.0000
    21 H21     -3.3036  -1.8675  -2.6119   H         1 1      0.0000
    22 H22     -3.1651  -3.1577  -1.4198   H         1 1      0.0000
    23 OL2     -1.1098  -0.3265   1.5889   O.3       1 1      0.0000
    24 H24     -2.0845  -0.2152   1.7137   H         1 1      0.0000
    25 N25     -3.4269  -1.6014   0.7294   N.3       1 1      0.0000
    26 H26     -4.4466  -1.6035   0.7519   H         1 1      0.0000
    27 C27     -2.9855  -2.9310   1.1541   C.3       1 1      0.0000
    28 H28     -1.8994  -2.9957   1.1523   H         1 1      0.0000
    29 H29     -3.3364  -3.1508   2.1602   H         1 1      0.0000
    30 H30     -3.3717  -3.6975   0.4854   H         1 1      0.0000
    31 OL1     -3.5751   0.1029  -0.9168   O.3       1 1      0.0000
    32 H32     -4.5622   0.0636  -0.8689   H         1 1      0.0000
    33 CL4     -1.1056   1.3569  -0.1620   C.2       1 1      0.0000
    34 C34     -1.4446   3.5562   0.6592   C.3       1 1      0.0000
    35 H35     -0.6962   3.9943  -0.0126   H         1 1      0.0000
    36 H36     -2.4251   3.6568   0.1775   H         1 1      0.0000
    37 OL3     -1.2998   1.7161  -1.2906   O.2       1 1      0.0000
    38 OL4     -1.1435   2.1502   0.9016   O.3       1 1      0.0000
    39 C39     -1.4391   4.2608   1.9607   C.3       1 1      0.0000
    40 H40     -0.4667   4.1756   2.4413   H         1 1      0.0000
    41 H41     -1.6600   5.3179   1.8280   H         1 1      0.0000
    42 H42     -2.1861   3.8399   2.6304   H         1 1      0.0000
@<TRIPOS>BOND
     1     1     2   ar
     2     1     6   ar
     3     1    11    1
     4     2     3   ar
     5     2     7    1
     6     3     4   ar
     7     3     8    1
     8     4     5   ar
     9     4    14    1
    10     5     6   ar
    11     5     9    1
    12     6    10    1
    13    11    12    2
    14    11    13    2
    15    14    15    1
    16    14    23    1
    17    14    33    1
    18    15    16    1
    19    15    17    1
    20    15    18    1
    21    18    19    1
    22    18    25    1
    23    18    31    1
    24    19    20    1
    25    19    21    1
    26    19    22    1
    27    23    24    1
    28    25    26    1
    29    25    27    1
    30    27    28    1
    31    27    29    1
    32    27    30    1
    33    31    32    1
    34    33    37    2
    35    33    38    1
    36    34    35    1
    37    34    36    1
    38    34    38    1
    39    34    39    1
    40    39    40    1
    41    39    41    1
    42    39    42    1
@<TRIPOS>SUBSTRUCTURE
     1 1           1 GROUP             0 ****  ****    0  
@<TRIPOS>MOLECULE
Molecule Name_00056
    42    42     1     0     0
SMALL
NO_CHARGES
****
Generated from the CSD

@<TRIPOS>ATOM
     1 C1       3.6042  -0.3741  -0.1241   C.ar      1 1      0.0000
     2 C2       2.9248   0.7677  -0.4866   C.ar      1 1      0.0000
     3 C3       1.5514   0.7989  -0.3264   C.ar      1 1      0.0000
     4 C4       0.8559  -0.2908   0.1856   C.ar      1 1      0.0000
     5 C5       1.5821  -1.4217   0.5420   C.ar      1 1      0.0000
     6 C6       2.9558  -1.4747   0.3904   C.ar      1 1      0.0000
     7 H7       3.4555   1.6242  -0.8890   H         1 1      0.0000
     8 H8       1.0101   1.6958  -0.6072   H         1 1      0.0000
     9 H9       1.0642  -2.2838   0.9489   H         1 1      0.0000
    10 H10      3.5105  -2.3640   0.6709   H         1 1      0.0000
    11 N11      5.0619  -0.4191  -0.2907   N.pl3     1 1      0.0000
    12 O12      5.6499  -1.4385   0.0353   O.2       1 1      0.0000
    13 O13      5.6223   0.5648  -0.7480   O.2       1 1      0.0000
    14 CL3     -0.6642  -0.2528   0.3497   C.3       1 1      0.0000
    15 CL1     -1.3273  -1.4527  -0.3843   C.3       1 1      0.0000
    16 H16     -1.1070  -1.3739  -1.4557   H         1 1      0.0000
    17 H17     -0.8549  -2.3772  -0.0301   H         1 1      0.0000
    18 CL      -2.8495  -1.5965  -0.2100   C.3       1 1      0.0000
    19 CL2     -3.1522  -1.9133   1.2431   C.3       1 1      0.0000
    20 H20     -3.9767  -2.6189   1.3204   H         1 1      0.0000
    21 H21     -2.2842  -2.3514   1.7312   H         1 1      0.0000
    22 H22     -3.4265  -1.0108   1.7855   H         1 1      0.0000
    23 OL2     -0.9524  -0.2859   1.7419   O.3       1 1      0.0000
    24 H24     -1.8246   0.1499   1.9075   H         1 1      0.0000
    25 N25     -3.5130  -0.3677  -0.5589   N.3       1 1      0.0000
    26 H26     -3.2756  -0.1649  -1.5299   H         1 1      0.0000
    27 C27     -4.9735  -0.3488  -0.4611   C.3       1 1      0.0000
    28 H28     -5.2947  -0.5589   0.5569   H         1 1      0.0000
    29 H29     -5.3666   0.6248  -0.7464   H         1 1      0.0000
    30 H30     -5.4137  -1.0973  -1.1167   H         1 1      0.0000
    31 OL1     -3.3126  -2.6944  -0.9872   O.3       1 1      0.0000
    32 H32     -4.2827  -2.8165  -0.8384   H         1 1      0.0000
    33 CL4     -1.1023   1.0995  -0.2475   C.2       1 1      0.0000
    34 C34     -1.5668   3.3759   0.2304   C.3       1 1      0.0000
    35 H35     -0.8715   3.7474  -0.5324   H         1 1      0.0000
    36 H36     -2.5662   3.3360  -0.2201   H         1 1      0.0000
    37 OL3     -1.3555   1.2605  -1.4095   O.2       1 1      0.0000
    38 OL4     -1.1620   2.0487   0.6786   O.3       1 1      0.0000
    39 C39     -1.5697   4.2785   1.4034   C.3       1 1      0.0000
    40 H40     -0.5794   4.3328   1.8507   H         1 1      0.0000
    41 H41     -1.8671   5.2846   1.1152   H         1 1      0.0000
    42 H42     -2.2649   3.9236   2.1614   H         1 1      0.0000
@<TRIPOS>BOND
     1     1     2   ar
     2     1     6   ar
     3     1    11    1
     4     2     3   ar
     5     2     7    1
     6     3     4   ar
     7     3     8    1
     8     4     5   ar
     9     4    14    1
    10     5     6   ar
    11     5     9    1
    12     6    10    1
    13    11    12    2
    14    11    13    2
    15    14    15    1
    16    14    23    1
    17    14    33    1
    18    15    16    1
    19    15    17    1
    20    15    18    1
    21    18    19    1
    22    18    25    1
    23    18    31    1
    24    19    20    1
    25    19    21    1
    26    19    22    1
    27    23    24    1
    28    25    26    1
    29    25    27    1
    30    27    28    1
    31    27    29    1
    32    27    30    1
    33    31    32    1
    34    33    37    2
    35    33    38    1
    36    34    35    1
    37    34    36    1
    38    34    38    1
    39    34    39    1
    40    39    40    1
    41    39    41    1
    42    39    42    1
@<TRIPOS>SUBSTRUCTURE
     1 1           1 GROUP             0 ****  ****    0  
@<TRIPOS>MOLECULE
Molecule Name_00057
    42    42     1     0     0
SMALL
NO_CHARGES
****
Generated from the CSD

@<TRIPOS>ATOM
     1 C1       3.5716  -0.2934  -0.1932   C.ar      1 1      0.0000
     2 C2       2.9594   0.6833   0.5604   C.ar      1 1      0.0000
     3 C3       1.5925   0.6075   0.7568   C.ar      1 1      0.0000
     4 C4       0.8373  -0.4242   0.2104   C.ar      1 1      0.0000
     5 C5       1.4967  -1.3909  -0.5407   C.ar      1 1      0.0000
     6 C6       2.8627  -1.3348  -0.7497   C.ar      1 1      0.0000
     7 H7       3.5370   1.4947   0.9908   H         1 1      0.0000
     8 H8       1.1041   1.3718   1.3515   H         1 1      0.0000
     9 H9       0.9316  -2.2095  -0.9737   H         1 1      0.0000
    10 H10      3.3649  -2.0947  -1.3392   H         1 1      0.0000
    11 N11      5.0217  -0.2226  -0.4094   N.pl3     1 1      0.0000
    12 O12      5.5497  -1.0961  -1.0798   O.2       1 1      0.0000
    13 O13      5.6361   0.7067   0.0908   O.2       1 1      0.0000
    14 CL3     -0.6756  -0.4954   0.4228   C.3       1 1      0.0000
    15 CL1     -1.4189  -0.5925  -0.9397   C.3       1 1      0.0000
    16 H16     -1.1903   0.3038  -1.5288   H         1 1      0.0000
    17 H17     -1.0134  -1.4484  -1.4933   H         1 1      0.0000
    18 CL      -2.9479  -0.7506  -0.8678   C.3       1 1      0.0000
    19 CL2     -3.5096  -0.7638  -2.2777   C.3       1 1      0.0000
    20 H20     -4.5945  -0.8441  -2.2600   H         1 1      0.0000
    21 H21     -3.2460   0.1498  -2.8065   H         1 1      0.0000
    22 H22     -3.1164  -1.6071  -2.8416   H         1 1      0.0000
    23 OL2     -0.9480  -1.6319   1.2331   O.3       1 1      0.0000
    24 H24     -1.4890  -1.3568   2.0140   H         1 1      0.0000
    25 N25     -3.2947  -1.9908  -0.2249   N.3       1 1      0.0000
    26 H26     -2.8870  -1.9674   0.7098   H         1 1      0.0000
    27 C27     -4.7205  -2.2815  -0.0642   C.3       1 1      0.0000
    28 H28     -5.2149  -2.3334  -1.0319   H         1 1      0.0000
    29 H29     -4.8653  -3.2337   0.4419   H         1 1      0.0000
    30 H30     -5.2080  -1.5072   0.5244   H         1 1      0.0000
    31 OL1     -3.5084   0.3736  -0.2000   O.3       1 1      0.0000
    32 H32     -4.4943   0.2952  -0.1954   H         1 1      0.0000
    33 CL4     -1.0386   0.7949   1.1849   C.2       1 1      0.0000
    34 C34     -1.4150   3.1284   0.9866   C.3       1 1      0.0000
    35 H35     -2.4031   3.0770   1.4602   H         1 1      0.0000
    36 H36     -0.6844   3.3801   1.7653   H         1 1      0.0000
    37 OL3     -1.2543   0.8299   2.3650   O.2       1 1      0.0000
    38 OL4     -1.0806   1.8469   0.3764   O.3       1 1      0.0000
    39 C39     -1.4087   4.1606  -0.0740   C.3       1 1      0.0000
    40 H40     -2.1383   3.9248  -0.8459   H         1 1      0.0000
    41 H41     -1.6540   5.1376   0.3371   H         1 1      0.0000
    42 H42     -0.4289   4.2263  -0.5425   H         1 1      0.0000
@<TRIPOS>BOND
     1     1     2   ar
     2     1     6   ar
     3     1    11    1
     4     2     3   ar
     5     2     7    1
     6     3     4   ar
     7     3     8    1
     8     4     5   ar
     9     4    14    1
    10     5     6   ar
    11     5     9    1
    12     6    10    1
    13    11    12    2
    14    11    13    2
    15    14    15    1
    16    14    23    1
    17    14    33    1
    18    15    16    1
    19    15    17    1
    20    15    18    1
    21    18    19    1
    22    18    25    1
    23    18    31    1
    24    19    20    1
    25    19    21    1
    26    19    22    1
    27    23    24    1
    28    25    26    1
    29    25    27    1
    30    27    28    1
    31    27    29    1
    32    27    30    1
    33    31    32    1
    34    33    37    2
    35    33    38    1
    36    34    35    1
    37    34    36    1
    38    34    38    1
    39    34    39    1
    40    39    40    1
    41    39    41    1
    42    39    42    1
@<TRIPOS>SUBSTRUCTURE
     1 1           1 GROUP             0 ****  ****    0  
@<TRIPOS>MOLECULE
Molecule Name_00058
    42    42     1     0     0
SMALL
NO_CHARGES
****
Generated from the CSD

@<TRIPOS>ATOM
     1 C1       3.4715  -0.3843  -0.1882   C.ar      1 1      0.0000
     2 C2       2.9061   0.6384   0.5407   C.ar      1 1      0.0000
     3 C3       1.5399   0.6207   0.7553   C.ar      1 1      0.0000
     4 C4       0.7396  -0.3984   0.2511   C.ar      1 1      0.0000
     5 C5       1.3526  -1.4127  -0.4761   C.ar      1 1      0.0000
     6 C6       2.7170  -1.4151  -0.7027   C.ar      1 1      0.0000
     7 H7       3.5192   1.4405   0.9380   H         1 1      0.0000
     8 H8       1.0882   1.4214   1.3307   H         1 1      0.0000
     9 H9       0.7517  -2.2226  -0.8760   H         1 1      0.0000
    10 H10      3.1827  -2.2118  -1.2732   H         1 1      0.0000
    11 N11      4.9204  -0.3754  -0.4233   N.pl3     1 1      0.0000
    12 O12      5.4066  -1.2891  -1.0713   O.2       1 1      0.0000
    13 O13      5.5756   0.5453   0.0395   O.2       1 1      0.0000
    14 CL3     -0.7720  -0.4054   0.4833   C.3       1 1      0.0000
    15 CL1     -1.5358  -0.5175  -0.8667   C.3       1 1      0.0000
    16 H16     -1.2813   0.3504  -1.4870   H         1 1      0.0000
    17 H17     -1.1699  -1.4052  -1.3971   H         1 1      0.0000
    18 CL      -3.0687  -0.6150  -0.7721   C.3       1 1      0.0000
    19 CL2     -3.6484  -0.6516  -2.1742   C.3       1 1      0.0000
    20 H20     -4.7334  -0.7254  -2.1411   H         1 1      0.0000
    21 H21     -3.3866   0.2503  -2.7235   H         1 1      0.0000
    22 H22     -3.2672  -1.5077  -2.7269   H         1 1      0.0000
    23 OL2     -1.0766  -1.5045   1.3328   O.3       1 1      0.0000
    24 H24     -2.0457  -1.5088   1.5300   H         1 1      0.0000
    25 N25     -3.4535  -1.8203  -0.0856   N.3       1 1      0.0000
    26 H26     -4.4725  -1.8262  -0.0400   H         1 1      0.0000
    27 C27     -3.0434  -3.0897  -0.6885   C.3       1 1      0.0000
    28 H28     -1.9598  -3.1475  -0.7660   H         1 1      0.0000
    29 H29     -3.3856  -3.9301  -0.0881   H         1 1      0.0000
    30 H30     -3.4608  -3.1947  -1.6877   H         1 1      0.0000
    31 OL1     -3.5780   0.5502  -0.1343   O.3       1 1      0.0000
    32 H32     -4.5650   0.4993  -0.0964   H         1 1      0.0000
    33 CL4     -1.0766   0.9212   1.2076   C.2       1 1      0.0000
    34 C34     -1.3676   3.2599   0.9388   C.3       1 1      0.0000
    35 H35     -2.3509   3.2610   1.4251   H         1 1      0.0000
    36 H36     -0.6182   3.5082   1.7004   H         1 1      0.0000
    37 OL3     -1.2757   1.0017   2.3883   O.2       1 1      0.0000
    38 OL4     -1.0894   1.9479   0.3663   O.3       1 1      0.0000
    39 C39     -1.3362   4.2569  -0.1546   C.3       1 1      0.0000
    40 H40     -2.0839   4.0247  -0.9100   H         1 1      0.0000
    41 H41     -1.5393   5.2551   0.2278   H         1 1      0.0000
    42 H42     -0.3607   4.2705  -0.6362   H         1 1      0.0000
@<TRIPOS>BOND
     1     1     2   ar
     2     1     6   ar
     3     1    11    1
     4     2     3   ar
     5     2     7    1
     6     3     4   ar
     7     3     8    1
     8     4     5   ar
     9     4    14    1
    10     5     6   ar
    11     5     9    1
    12     6    10    1
    13    11    12    2
    14    11    13    2
    15    14    15    1
    16    14    23    1
    17    14    33    1
    18    15    16    1
    19    15    17    1
    20    15    18    1
    21    18    19    1
    22    18    25    1
    23    18    31    1
    24    19    20    1
    25    19    21    1
    26    19    22    1
    27    23    24    1
    28    25    26    1
    29    25    27    1
    30    27    28    1
    31    27    29    1
    32    27    30    1
    33    31    32    1
    34    33    37    2
    35    33    38    1
    36    34    35    1
    37    34    36    1
    38    34    38    1
    39    34    39    1
    40    39    40    1
    41    39    41    1
    42    39    42    1
@<TRIPOS>SUBSTRUCTURE
     1 1           1 GROUP             0 ****  ****    0  
@<TRIPOS>MOLECULE
Molecule Name_00059
    42    42     1     0     0
SMALL
NO_CHARGES
****
Generated from the CSD

@<TRIPOS>ATOM
     1 C1       3.5936  -0.2600  -0.2406   C.ar      1 1      0.0000
     2 C2       2.9491   0.6010   0.6196   C.ar      1 1      0.0000
     3 C3       1.5854   0.4573   0.8004   C.ar      1 1      0.0000
     4 C4       0.8652  -0.5279   0.1342   C.ar      1 1      0.0000
     5 C5       1.5567  -1.3777  -0.7221   C.ar      1 1      0.0000
     6 C6       2.9200  -1.2521  -0.9178   C.ar      1 1      0.0000
     7 H7       3.4992   1.3752   1.1442   H         1 1      0.0000
     8 H8       1.0718   1.1301   1.4784   H         1 1      0.0000
     9 H9       1.0193  -2.1583  -1.2501   H         1 1      0.0000
    10 H10      3.4474  -1.9207  -1.5901   H         1 1      0.0000
    11 N11      5.0406  -0.1163  -0.4413   N.pl3     1 1      0.0000
    12 O12      5.5975  -0.8873  -1.2071   O.2       1 1      0.0000
    13 O13      5.6236   0.7681   0.1665   O.2       1 1      0.0000
    14 CL3     -0.6444  -0.6737   0.3310   C.3       1 1      0.0000
    15 CL1     -1.3840  -0.6355  -1.0365   C.3       1 1      0.0000
    16 H16     -1.1804   0.3281  -1.5188   H         1 1      0.0000
    17 H17     -0.9544  -1.4111  -1.6825   H         1 1      0.0000
    18 CL      -2.9080  -0.8432  -0.9887   C.3       1 1      0.0000
    19 CL2     -3.1998  -2.2427  -0.4790   C.3       1 1      0.0000
    20 H20     -4.1331  -2.6176  -0.8938   H         1 1      0.0000
    21 H21     -2.4040  -2.9293  -0.7602   H         1 1      0.0000
    22 H22     -3.2846  -2.2482   0.6057   H         1 1      0.0000
    23 OL2     -0.8787  -1.9057   1.0018   O.3       1 1      0.0000
    24 H24     -1.5484  -1.7686   1.7164   H         1 1      0.0000
    25 N25     -3.5163   0.1063  -0.0941   N.3       1 1      0.0000
    26 H26     -3.2867   1.0365  -0.4440   H         1 1      0.0000
    27 C27     -4.9721   0.0485   0.0485   C.3       1 1      0.0000
    28 H28     -5.2848  -0.9246   0.4213   H         1 1      0.0000
    29 H29     -5.3217   0.8069   0.7459   H         1 1      0.0000
    30 H30     -5.4604   0.2176  -0.9089   H         1 1      0.0000
    31 OL1     -3.4387  -0.7539  -2.3056   O.3       1 1      0.0000
    32 H32     -4.4108  -0.9344  -2.2812   H         1 1      0.0000
    33 CL4     -1.0504   0.5057   1.2371   C.2       1 1      0.0000
    34 C34     -1.5046   2.8326   1.3116   C.3       1 1      0.0000
    35 H35     -2.4906   2.6934   1.7719   H         1 1      0.0000
    36 H36     -0.7829   3.0157   2.1172   H         1 1      0.0000
    37 OL3     -1.2672   0.3953   2.4124   O.2       1 1      0.0000
    38 OL4     -1.1276   1.6431   0.5571   O.3       1 1      0.0000
    39 C39     -1.5329   3.9814   0.3788   C.3       1 1      0.0000
    40 H40     -2.2542   3.8135  -0.4182   H         1 1      0.0000
    41 H41     -1.8108   4.8950   0.9004   H         1 1      0.0000
    42 H42     -0.5558   4.1340  -0.0749   H         1 1      0.0000
@<TRIPOS>BOND
     1     1     2   ar
     2     1     6   ar
     3     1    11    1
     4     2     3   ar
     5     2     7    1
     6     3     4   ar
     7     3     8    1
     8     4     5   ar
     9     4    14    1
    10     5     6   ar
    11     5     9    1
    12     6    10    1
    13    11    12    2
    14    11    13    2
    15    14    15    1
    16    14    23    1
    17    14    33    1
    18    15    16    1
    19    15    17    1
    20    15    18    1
    21    18    19    1
    22    18    25    1
    23    18    31    1
    24    19    20    1
    25    19    21    1
    26    19    22    1
    27    23    24    1
    28    25    26    1
    29    25    27    1
    30    27    28    1
    31    27    29    1
    32    27    30    1
    33    31    32    1
    34    33    37    2
    35    33    38    1
    36    34    35    1
    37    34    36    1
    38    34    38    1
    39    34    39    1
    40    39    40    1
    41    39    41    1
    42    39    42    1
@<TRIPOS>SUBSTRUCTURE
     1 1           1 GROUP             0 ****  ****    0  
@<TRIPOS>MOLECULE
Molecule Name_00060
    42    42     1     0     0
SMALL
NO_CHARGES
****
Generated from the CSD

@<TRIPOS>ATOM
     1 C1       3.5778  -0.2856  -0.0228   C.ar      1 1      0.0000
     2 C2       2.9506   0.9113   0.2429   C.ar      1 1      0.0000
     3 C3       1.5879   0.9055   0.4798   C.ar      1 1      0.0000
     4 C4       0.8519  -0.2738   0.4516   C.ar      1 1      0.0000
     5 C5       1.5262  -1.4597   0.1828   C.ar      1 1      0.0000
     6 C6       2.8882  -1.4771  -0.0569   C.ar      1 1      0.0000
     7 H7       3.5132   1.8388   0.2661   H         1 1      0.0000
     8 H8       1.0878   1.8440   0.6925   H         1 1      0.0000
     9 H9       0.9762  -2.3946   0.1602   H         1 1      0.0000
    10 H10      3.4022  -2.4093  -0.2671   H         1 1      0.0000
    11 N11      5.0236  -0.2914  -0.2770   N.pl3     1 1      0.0000
    12 O12      5.5651  -1.3606  -0.5111   O.2       1 1      0.0000
    13 O13      5.6209   0.7731  -0.2431   O.2       1 1      0.0000
    14 CL3     -0.6565  -0.2709   0.7039   C.3       1 1      0.0000
    15 CL1     -1.4111  -0.9693  -0.4628   C.3       1 1      0.0000
    16 H16     -1.2892  -0.3661  -1.3705   H         1 1      0.0000
    17 H17     -0.9285  -1.9353  -0.6562   H         1 1      0.0000
    18 CL      -2.9135  -1.2208  -0.2440   C.3       1 1      0.0000
    19 CL2     -3.6002   0.1036   0.0346   C.3       1 1      0.0000
    20 H20     -4.6756   0.0177  -0.1067   H         1 1      0.0000
    21 H21     -3.4175   0.4251   1.0579   H         1 1      0.0000
    22 H22     -3.2312   0.8778  -0.6349   H         1 1      0.0000
    23 OL2     -0.8928  -0.9409   1.9358   O.3       1 1      0.0000
    24 H24     -1.8599  -0.9191   2.1416   H         1 1      0.0000
    25 N25     -3.5017  -1.8031  -1.4217   N.3       1 1      0.0000
    26 H26     -2.9937  -2.6664  -1.6141   H         1 1      0.0000
    27 C27     -4.9231  -2.1471  -1.3553   C.3       1 1      0.0000
    28 H28     -5.5378  -1.2494  -1.3606   H         1 1      0.0000
    29 H29     -5.2116  -2.7604  -2.2064   H         1 1      0.0000
    30 H30     -5.1433  -2.7033  -0.4466   H         1 1      0.0000
    31 OL1     -3.0931  -2.0401   0.9051   O.3       1 1      0.0000
    32 H32     -4.0586  -2.1202   1.1040   H         1 1      0.0000
    33 CL4     -1.0432   1.2163   0.8297   C.2       1 1      0.0000
    34 C34     -1.4463   3.2271  -0.3621   C.3       1 1      0.0000
    35 H35     -2.4386   3.3707   0.0831   H         1 1      0.0000
    36 H36     -0.7269   3.8028   0.2332   H         1 1      0.0000
    37 OL3     -1.2714   1.7561   1.8771   O.2       1 1      0.0000
    38 OL4     -1.0900   1.8132  -0.3551   O.3       1 1      0.0000
    39 C39     -1.4420   3.6975  -1.7654   C.3       1 1      0.0000
    40 H40     -2.1607   3.1391  -2.3616   H         1 1      0.0000
    41 H41     -1.7035   4.7522  -1.8195   H         1 1      0.0000
    42 H42     -0.4583   3.5689  -2.2123   H         1 1      0.0000
@<TRIPOS>BOND
     1     1     2   ar
     2     1     6   ar
     3     1    11    1
     4     2     3   ar
     5     2     7    1
     6     3     4   ar
     7     3     8    1
     8     4     5   ar
     9     4    14    1
    10     5     6   ar
    11     5     9    1
    12     6    10    1
    13    11    12    2
    14    11    13    2
    15    14    15    1
    16    14    23    1
    17    14    33    1
    18    15    16    1
    19    15    17    1
    20    15    18    1
    21    18    19    1
    22    18    25    1
    23    18    31    1
    24    19    20    1
    25    19    21    1
    26    19    22    1
    27    23    24    1
    28    25    26    1
    29    25    27    1
    30    27    28    1
    31    27    29    1
    32    27    30    1
    33    31    32    1
    34    33    37    2
    35    33    38    1
    36    34    35    1
    37    34    36    1
    38    34    38    1
    39    34    39    1
    40    39    40    1
    41    39    41    1
    42    39    42    1
@<TRIPOS>SUBSTRUCTURE
     1 1           1 GROUP             0 ****  ****    0  
@<TRIPOS>MOLECULE
Molecule Name_00061
    42    42     1     0     0
SMALL
NO_CHARGES
****
Generated from the CSD

@<TRIPOS>ATOM
     1 C1       3.5075  -0.3573  -0.0116   C.ar      1 1      0.0000
     2 C2       2.8921   0.8612   0.1704   C.ar      1 1      0.0000
     3 C3       1.5352   0.8835   0.4369   C.ar      1 1      0.0000
     4 C4       0.7929  -0.2893   0.5201   C.ar      1 1      0.0000
     5 C5       1.4553  -1.4974   0.3331   C.ar      1 1      0.0000
     6 C6       2.8115  -1.5432   0.0657   C.ar      1 1      0.0000
     7 H7       3.4596   1.7837   0.1063   H         1 1      0.0000
     8 H8       1.0444   1.8394   0.5841   H         1 1      0.0000
     9 H9       0.9004  -2.4274   0.3981   H         1 1      0.0000
    10 H10      3.3161  -2.4926  -0.0798   H         1 1      0.0000
    11 N11      4.9471  -0.3933  -0.2962   N.pl3     1 1      0.0000
    12 O12      5.4781  -1.4814  -0.4551   O.2       1 1      0.0000
    13 O13      5.5502   0.6666  -0.3614   O.2       1 1      0.0000
    14 CL3     -0.7094  -0.2561   0.8044   C.3       1 1      0.0000
    15 CL1     -1.4933  -1.0419  -0.2847   C.3       1 1      0.0000
    16 H16     -1.3882  -0.5157  -1.2411   H         1 1      0.0000
    17 H17     -1.0203  -2.0239  -0.4089   H         1 1      0.0000
    18 CL      -2.9918  -1.2640  -0.0138   C.3       1 1      0.0000
    19 CL2     -3.6659   0.0839   0.1662   C.3       1 1      0.0000
    20 H20     -4.7430  -0.0036   0.0399   H         1 1      0.0000
    21 H21     -3.4724   0.4822   1.1600   H         1 1      0.0000
    22 H22     -3.2961   0.8006  -0.5641   H         1 1      0.0000
    23 OL2     -0.9212  -0.8223   2.0917   O.3       1 1      0.0000
    24 H24     -1.8833  -0.7775   2.3162   H         1 1      0.0000
    25 N25     -3.6081  -1.9397  -1.1253   N.3       1 1      0.0000
    26 H26     -4.5910  -2.0722  -0.8871   H         1 1      0.0000
    27 C27     -3.5685  -1.2612  -2.4219   C.3       1 1      0.0000
    28 H28     -2.5411  -1.1008  -2.7420   H         1 1      0.0000
    29 H29     -4.0719  -1.8538  -3.1829   H         1 1      0.0000
    30 H30     -4.0611  -0.2927  -2.3656   H         1 1      0.0000
    31 OL1     -3.1506  -1.9820   1.2040   O.3       1 1      0.0000
    32 H32     -4.1142  -2.1025   1.3912   H         1 1      0.0000
    33 CL4     -1.0861   1.2390   0.8174   C.2       1 1      0.0000
    34 C34     -1.5018   3.1502  -0.5245   C.3       1 1      0.0000
    35 H35     -2.4846   3.3355  -0.0739   H         1 1      0.0000
    36 H36     -0.7682   3.7671   0.0091   H         1 1      0.0000
    37 OL3     -1.2915   1.8626   1.8221   O.2       1 1      0.0000
    38 OL4     -1.1525   1.7390  -0.4104   O.3       1 1      0.0000
    39 C39     -1.5219   3.5063  -1.9610   C.3       1 1      0.0000
    40 H40     -2.2547   2.9065  -2.4968   H         1 1      0.0000
    41 H41     -1.7791   4.5549  -2.0948   H         1 1      0.0000
    42 H42     -0.5477   3.3357  -2.4143   H         1 1      0.0000
@<TRIPOS>BOND
     1     1     2   ar
     2     1     6   ar
     3     1    11    1
     4     2     3   ar
     5     2     7    1
     6     3     4   ar
     7     3     8    1
     8     4     5   ar
     9     4    14    1
    10     5     6   ar
    11     5     9    1
    12     6    10    1
    13    11    12    2
    14    11    13    2
    15    14    15    1
    16    14    23    1
    17    14    33    1
    18    15    16    1
    19    15    17    1
    20    15    18    1
    21    18    19    1
    22    18    25    1
    23    18    31    1
    24    19    20    1
    25    19    21    1
    26    19    22    1
    27    23    24    1
    28    25    26    1
    29    25    27    1
    30    27    28    1
    31    27    29    1
    32    27    30    1
    33    31    32    1
    34    33    37    2
    35    33    38    1
    36    34    35    1
    37    34    36    1
    38    34    38    1
    39    34    39    1
    40    39    40    1
    41    39    41    1
    42    39    42    1
@<TRIPOS>SUBSTRUCTURE
     1 1           1 GROUP             0 ****  ****    0  
@<TRIPOS>MOLECULE
Molecule Name_00062
    42    42     1     0     0
SMALL
NO_CHARGES
****
Generated from the CSD

@<TRIPOS>ATOM
     1 C1       3.4755  -0.3747  -0.0291   C.ar      1 1      0.0000
     2 C2       2.8979   0.8509   0.2177   C.ar      1 1      0.0000
     3 C3       1.5388   0.9030   0.4688   C.ar      1 1      0.0000
     4 C4       0.7575  -0.2472   0.4732   C.ar      1 1      0.0000
     5 C5       1.3824  -1.4637   0.2226   C.ar      1 1      0.0000
     6 C6       2.7400  -1.5390  -0.0308   C.ar      1 1      0.0000
     7 H7       3.4961   1.7561   0.2154   H         1 1      0.0000
     8 H8       1.0777   1.8644   0.6668   H         1 1      0.0000
     9 H9       0.7965  -2.3768   0.2254   H         1 1      0.0000
    10 H10      3.2152  -2.4945  -0.2266   H         1 1      0.0000
    11 N11      4.9170  -0.4419  -0.2981   N.pl3     1 1      0.0000
    12 O12      5.4142  -1.5360  -0.5151   O.2       1 1      0.0000
    13 O13      5.5553   0.5991  -0.2929   O.2       1 1      0.0000
    14 CL3     -0.7468  -0.1805   0.7409   C.3       1 1      0.0000
    15 CL1     -1.5407  -0.8740  -0.4023   C.3       1 1      0.0000
    16 H16     -1.4052  -0.2960  -1.3244   H         1 1      0.0000
    17 H17     -1.0984  -1.8622  -0.5790   H         1 1      0.0000
    18 CL      -3.0493  -1.0613  -0.1630   C.3       1 1      0.0000
    19 CL2     -3.6813   0.2954   0.0890   C.3       1 1      0.0000
    20 H20     -4.7588   0.2516  -0.0551   H         1 1      0.0000
    21 H21     -3.4887   0.6274   1.1071   H         1 1      0.0000
    22 H22     -3.2782   1.0413  -0.5928   H         1 1      0.0000
    23 OL2     -0.9949  -0.8143   1.9896   O.3       1 1      0.0000
    24 H24     -1.9581  -0.7507   2.2049   H         1 1      0.0000
    25 N25     -3.6720  -1.6489  -1.3202   N.3       1 1      0.0000
    26 H26     -3.5270  -1.0046  -2.0975   H         1 1      0.0000
    27 C27     -3.1772  -2.9580  -1.7497   C.3       1 1      0.0000
    28 H28     -3.3041  -3.6962  -0.9606   H         1 1      0.0000
    29 H29     -3.7169  -3.3049  -2.6284   H         1 1      0.0000
    30 H30     -2.1195  -2.9075  -1.9997   H         1 1      0.0000
    31 OL1     -3.2485  -1.8445   1.0078   O.3       1 1      0.0000
    32 H32     -4.2180  -1.9435   1.1760   H         1 1      0.0000
    33 CL4     -1.0745   1.3229   0.8383   C.2       1 1      0.0000
    34 C34     -1.4086   3.3229  -0.3925   C.3       1 1      0.0000
    35 H35     -2.3910   3.5142   0.0565   H         1 1      0.0000
    36 H36     -0.6627   3.8823   0.1856   H         1 1      0.0000
    37 OL3     -1.2733   1.8927   1.8757   O.2       1 1      0.0000
    38 OL4     -1.1073   1.8966  -0.3583   O.3       1 1      0.0000
    39 C39     -1.3969   3.7637  -1.8054   C.3       1 1      0.0000
    40 H40     -2.1414   3.2215  -2.3846   H         1 1      0.0000
    41 H41     -1.6177   4.8264  -1.8796   H         1 1      0.0000
    42 H42     -0.4226   3.5876  -2.2563   H         1 1      0.0000
@<TRIPOS>BOND
     1     1     2   ar
     2     1     6   ar
     3     1    11    1
     4     2     3   ar
     5     2     7    1
     6     3     4   ar
     7     3     8    1
     8     4     5   ar
     9     4    14    1
    10     5     6   ar
    11     5     9    1
    12     6    10    1
    13    11    12    2
    14    11    13    2
    15    14    15    1
    16    14    23    1
    17    14    33    1
    18    15    16    1
    19    15    17    1
    20    15    18    1
    21    18    19    1
    22    18    25    1
    23    18    31    1
    24    19    20    1
    25    19    21    1
    26    19    22    1
    27    23    24    1
    28    25    26    1
    29    25    27    1
    30    27    28    1
    31    27    29    1
    32    27    30    1
    33    31    32    1
    34    33    37    2
    35    33    38    1
    36    34    35    1
    37    34    36    1
    38    34    38    1
    39    34    39    1
    40    39    40    1
    41    39    41    1
    42    39    42    1
@<TRIPOS>SUBSTRUCTURE
     1 1           1 GROUP             0 ****  ****    0  
@<TRIPOS>MOLECULE
Molecule Name_00063
    42    42     1     0     0
SMALL
NO_CHARGES
****
Generated from the CSD

@<TRIPOS>ATOM
     1 C1       3.6373  -0.4311  -0.0229   C.ar      1 1      0.0000
     2 C2       3.1105   0.8046   0.2809   C.ar      1 1      0.0000
     3 C3       1.7392   0.9238   0.4163   C.ar      1 1      0.0000
     4 C4       0.8962  -0.1694   0.2502   C.ar      1 1      0.0000
     5 C5       1.4710  -1.3989  -0.0524   C.ar      1 1      0.0000
     6 C6       2.8396  -1.5409  -0.1923   C.ar      1 1      0.0000
     7 H7       3.7572   1.6659   0.4113   H         1 1      0.0000
     8 H8       1.3176   1.8933   0.6582   H         1 1      0.0000
     9 H9       0.8360  -2.2689  -0.1819   H         1 1      0.0000
    10 H10      3.2754  -2.5056  -0.4302   H         1 1      0.0000
    11 N11      5.0912  -0.5693  -0.1702   N.pl3     1 1      0.0000
    12 O12      5.5429  -1.6714  -0.4397   O.2       1 1      0.0000
    13 O13      5.7849   0.4239  -0.0168   O.2       1 1      0.0000
    14 CL3     -0.6200  -0.0276   0.3908   C.3       1 1      0.0000
    15 CL1     -1.3421  -1.3083  -0.1159   C.3       1 1      0.0000
    16 H16     -1.1100  -1.4446  -1.1791   H         1 1      0.0000
    17 H17     -0.9232  -2.1727   0.4139   H         1 1      0.0000
    18 CL      -2.8710  -1.3373   0.0558   C.3       1 1      0.0000
    19 CL2     -3.4754  -0.1715  -0.7053   C.3       1 1      0.0000
    20 H20     -4.5192  -0.3658  -0.9430   H         1 1      0.0000
    21 H21     -3.4263   0.7413  -0.1152   H         1 1      0.0000
    22 H22     -2.9414  -0.0014  -1.6378   H         1 1      0.0000
    23 OL2     -0.9093   0.2103   1.7627   O.3       1 1      0.0000
    24 H24     -1.8827   0.3443   1.8749   H         1 1      0.0000
    25 N25     -3.4127  -2.5609  -0.4746   N.3       1 1      0.0000
    26 H26     -2.9542  -3.3285   0.0163   H         1 1      0.0000
    27 C27     -4.8558  -2.7647  -0.3374   C.3       1 1      0.0000
    28 H28     -5.4024  -2.1356  -1.0369   H         1 1      0.0000
    29 H29     -5.1196  -3.8013  -0.5364   H         1 1      0.0000
    30 H30     -5.1861  -2.5182   0.6695   H         1 1      0.0000
    31 OL1     -3.1958  -1.1592   1.4294   O.3       1 1      0.0000
    32 H32     -4.1737  -1.0458   1.5238   H         1 1      0.0000
    33 CL4     -0.9905   1.2113  -0.4489   C.2       1 1      0.0000
    34 C34     -1.7294   3.4638  -0.3679   C.3       1 1      0.0000
    35 H35     -0.8921   3.8305  -0.9743   H         1 1      0.0000
    36 H36     -2.5750   3.2808  -1.0424   H         1 1      0.0000
    37 OL3     -0.9501   1.2361  -1.6481   O.2       1 1      0.0000
    38 OL4     -1.3549   2.2323   0.3172   O.3       1 1      0.0000
    39 C39     -2.0987   4.4675   0.6552   C.3       1 1      0.0000
    40 H40     -1.2621   4.6635   1.3227   H         1 1      0.0000
    41 H41     -2.3866   5.4068   0.1877   H         1 1      0.0000
    42 H42     -2.9359   4.1168   1.2550   H         1 1      0.0000
@<TRIPOS>BOND
     1     1     2   ar
     2     1     6   ar
     3     1    11    1
     4     2     3   ar
     5     2     7    1
     6     3     4   ar
     7     3     8    1
     8     4     5   ar
     9     4    14    1
    10     5     6   ar
    11     5     9    1
    12     6    10    1
    13    11    12    2
    14    11    13    2
    15    14    15    1
    16    14    23    1
    17    14    33    1
    18    15    16    1
    19    15    17    1
    20    15    18    1
    21    18    19    1
    22    18    25    1
    23    18    31    1
    24    19    20    1
    25    19    21    1
    26    19    22    1
    27    23    24    1
    28    25    26    1
    29    25    27    1
    30    27    28    1
    31    27    29    1
    32    27    30    1
    33    31    32    1
    34    33    37    2
    35    33    38    1
    36    34    35    1
    37    34    36    1
    38    34    38    1
    39    34    39    1
    40    39    40    1
    41    39    41    1
    42    39    42    1
@<TRIPOS>SUBSTRUCTURE
     1 1           1 GROUP             0 ****  ****    0  
@<TRIPOS>MOLECULE
Molecule Name_00064
    42    42     1     0     0
SMALL
NO_CHARGES
****
Generated from the CSD

@<TRIPOS>ATOM
     1 C1       3.5517  -0.5068  -0.0101   C.ar      1 1      0.0000
     2 C2       3.0605   0.7633   0.1957   C.ar      1 1      0.0000
     3 C3       1.6968   0.9267   0.3580   C.ar      1 1      0.0000
     4 C4       0.8262  -0.1566   0.3145   C.ar      1 1      0.0000
     5 C5       1.3654  -1.4215   0.1079   C.ar      1 1      0.0000
     6 C6       2.7259  -1.6080  -0.0567   C.ar      1 1      0.0000
     7 H7       3.7290   1.6172   0.2300   H         1 1      0.0000
     8 H8       1.3032   1.9237   0.5232   H         1 1      0.0000
     9 H9       0.7086  -2.2843   0.0750   H         1 1      0.0000
    10 H10      3.1338  -2.6002  -0.2188   H         1 1      0.0000
    11 N11      4.9973  -0.6922  -0.1848   N.pl3     1 1      0.0000
    12 O12      5.4172  -1.8244  -0.3665   O.2       1 1      0.0000
    13 O13      5.7162   0.2940  -0.1408   O.2       1 1      0.0000
    14 CL3     -0.6818   0.0333   0.4839   C.3       1 1      0.0000
    15 CL1     -1.4457  -1.2699   0.1143   C.3       1 1      0.0000
    16 H16     -1.2474  -1.5064  -0.9381   H         1 1      0.0000
    17 H17     -1.0305  -2.0932   0.7086   H         1 1      0.0000
    18 CL      -2.9694  -1.2464   0.3289   C.3       1 1      0.0000
    19 CL2     -3.5708  -0.1434  -0.5226   C.3       1 1      0.0000
    20 H20     -4.6225  -0.3394  -0.7211   H         1 1      0.0000
    21 H21     -3.4945   0.8179  -0.0187   H         1 1      0.0000
    22 H22     -3.0541  -0.0677  -1.4770   H         1 1      0.0000
    23 OL2     -0.9249   0.3991   1.8365   O.3       1 1      0.0000
    24 H24     -1.8915   0.5657   1.9633   H         1 1      0.0000
    25 N25     -3.5517  -2.5013  -0.0689   N.3       1 1      0.0000
    26 H26     -4.5543  -2.4347   0.1066   H         1 1      0.0000
    27 C27     -3.3862  -2.8982  -1.4682   C.3       1 1      0.0000
    28 H28     -2.3321  -2.9960  -1.7192   H         1 1      0.0000
    29 H29     -3.8698  -3.8542  -1.6577   H         1 1      0.0000
    30 H30     -3.8258  -2.1582  -2.1336   H         1 1      0.0000
    31 OL1     -3.2506  -0.9326   1.6876   O.3       1 1      0.0000
    32 H32     -4.2299  -0.8924   1.8198   H         1 1      0.0000
    33 CL4     -1.0507   1.2010  -0.4528   C.2       1 1      0.0000
    34 C34     -1.7412   3.4681  -0.5535   C.3       1 1      0.0000
    35 H35     -0.9141   3.7604  -1.2122   H         1 1      0.0000
    36 H36     -2.6091   3.2453  -1.1863   H         1 1      0.0000
    37 OL3     -1.0440   1.1185  -1.6501   O.2       1 1      0.0000
    38 OL4     -1.3724   2.2939   0.2286   O.3       1 1      0.0000
    39 C39     -2.0606   4.5666   0.3854   C.3       1 1      0.0000
    40 H40     -1.2017   4.8019   1.0103   H         1 1      0.0000
    41 H41     -2.3425   5.4672  -0.1562   H         1 1      0.0000
    42 H42     -2.8875   4.2897   1.0361   H         1 1      0.0000
@<TRIPOS>BOND
     1     1     2   ar
     2     1     6   ar
     3     1    11    1
     4     2     3   ar
     5     2     7    1
     6     3     4   ar
     7     3     8    1
     8     4     5   ar
     9     4    14    1
    10     5     6   ar
    11     5     9    1
    12     6    10    1
    13    11    12    2
    14    11    13    2
    15    14    15    1
    16    14    23    1
    17    14    33    1
    18    15    16    1
    19    15    17    1
    20    15    18    1
    21    18    19    1
    22    18    25    1
    23    18    31    1
    24    19    20    1
    25    19    21    1
    26    19    22    1
    27    23    24    1
    28    25    26    1
    29    25    27    1
    30    27    28    1
    31    27    29    1
    32    27    30    1
    33    31    32    1
    34    33    37    2
    35    33    38    1
    36    34    35    1
    37    34    36    1
    38    34    38    1
    39    34    39    1
    40    39    40    1
    41    39    41    1
    42    39    42    1
@<TRIPOS>SUBSTRUCTURE
     1 1           1 GROUP             0 ****  ****    0  
@<TRIPOS>MOLECULE
Molecule Name_00065
    42    42     1     0     0
SMALL
NO_CHARGES
****
Generated from the CSD

@<TRIPOS>ATOM
     1 C1       3.5268  -0.5360  -0.1346   C.ar      1 1      0.0000
     2 C2       3.0578   0.5828   0.5173   C.ar      1 1      0.0000
     3 C3       1.6919   0.7323   0.6751   C.ar      1 1      0.0000
     4 C4       0.7977  -0.2155   0.1900   C.ar      1 1      0.0000
     5 C5       1.3149  -1.3313  -0.4587   C.ar      1 1      0.0000
     6 C6       2.6771  -1.5011  -0.6275   C.ar      1 1      0.0000
     7 H7       3.7450   1.3308   0.8989   H         1 1      0.0000
     8 H8       1.3155   1.6096   1.1898   H         1 1      0.0000
     9 H9       0.6390  -2.0885  -0.8420   H         1 1      0.0000
    10 H10      3.0677  -2.3758  -1.1370   H         1 1      0.0000
    11 N11      4.9745  -0.7047  -0.3089   N.pl3     1 1      0.0000
    12 O12      5.3747  -1.7020  -0.8890   O.2       1 1      0.0000
    13 O13      5.7148   0.1597   0.1338   O.2       1 1      0.0000
    14 CL3     -0.7119  -0.0379   0.3587   C.3       1 1      0.0000
    15 CL1     -1.4879  -1.0708  -0.5070   C.3       1 1      0.0000
    16 H16     -1.2399  -0.9015  -1.5617   H         1 1      0.0000
    17 H17     -1.1259  -2.0747  -0.2528   H         1 1      0.0000
    18 CL      -3.0197  -1.0635  -0.3602   C.3       1 1      0.0000
    19 CL2     -3.5468   0.3043  -0.7536   C.3       1 1      0.0000
    20 H20     -4.5910   0.2437  -1.0531   H         1 1      0.0000
    21 H21     -3.4730   1.0002   0.0794   H         1 1      0.0000
    22 H22     -2.9782   0.7116  -1.5869   H         1 1      0.0000
    23 OL2     -1.0174  -0.1988   1.7383   O.3       1 1      0.0000
    24 H24     -1.9848  -0.0503   1.8802   H         1 1      0.0000
    25 N25     -3.6117  -2.0491  -1.2263   N.3       1 1      0.0000
    26 H26     -3.3590  -1.7978  -2.1820   H         1 1      0.0000
    27 C27     -3.2049  -3.4411  -1.0267   C.3       1 1      0.0000
    28 H28     -3.4485  -3.7735  -0.0198   H         1 1      0.0000
    29 H29     -3.7123  -4.0961  -1.7319   H         1 1      0.0000
    30 H30     -2.1324  -3.5540  -1.1707   H         1 1      0.0000
    31 OL1     -3.3648  -1.2732   1.0039   O.3       1 1      0.0000
    32 H32     -4.3484  -1.2431   1.1025   H         1 1      0.0000
    33 CL4     -1.0007   1.4118  -0.0799   C.2       1 1      0.0000
    34 C34     -1.6270   3.5773   0.6582   C.3       1 1      0.0000
    35 H35     -0.7588   4.0600   0.1927   H         1 1      0.0000
    36 H36     -2.4654   3.6477  -0.0457   H         1 1      0.0000
    37 OL3     -0.9322   1.7866  -1.2179   O.2       1 1      0.0000
    38 OL4     -1.3303   2.1800   0.9513   O.3       1 1      0.0000
    39 C39     -1.9680   4.2535   1.9298   C.3       1 1      0.0000
    40 H40     -1.1379   4.1981   2.6308   H         1 1      0.0000
    41 H41     -2.1977   5.3032   1.7588   H         1 1      0.0000
    42 H42     -2.8351   3.7880   2.3937   H         1 1      0.0000
@<TRIPOS>BOND
     1     1     2   ar
     2     1     6   ar
     3     1    11    1
     4     2     3   ar
     5     2     7    1
     6     3     4   ar
     7     3     8    1
     8     4     5   ar
     9     4    14    1
    10     5     6   ar
    11     5     9    1
    12     6    10    1
    13    11    12    2
    14    11    13    2
    15    14    15    1
    16    14    23    1
    17    14    33    1
    18    15    16    1
    19    15    17    1
    20    15    18    1
    21    18    19    1
    22    18    25    1
    23    18    31    1
    24    19    20    1
    25    19    21    1
    26    19    22    1
    27    23    24    1
    28    25    26    1
    29    25    27    1
    30    27    28    1
    31    27    29    1
    32    27    30    1
    33    31    32    1
    34    33    37    2
    35    33    38    1
    36    34    35    1
    37    34    36    1
    38    34    38    1
    39    34    39    1
    40    39    40    1
    41    39    41    1
    42    39    42    1
@<TRIPOS>SUBSTRUCTURE
     1 1           1 GROUP             0 ****  ****    0  
@<TRIPOS>MOLECULE
Molecule Name_00066
    42    42     1     0     0
SMALL
NO_CHARGES
****
Generated from the CSD

@<TRIPOS>ATOM
     1 C1       3.5665  -0.3358  -0.1372   C.ar      1 1      0.0000
     2 C2       2.7444  -0.5953  -1.2113   C.ar      1 1      0.0000
     3 C3       1.3752  -0.5303  -1.0270   C.ar      1 1      0.0000
     4 C4       0.8240  -0.2139   0.2097   C.ar      1 1      0.0000
     5 C5       1.6909   0.0442   1.2657   C.ar      1 1      0.0000
     6 C6       3.0632  -0.0150   1.1039   C.ar      1 1      0.0000
     7 H7       3.1619  -0.8452  -2.1811   H         1 1      0.0000
     8 H8       0.7218  -0.7308  -1.8690   H         1 1      0.0000
     9 H9       1.2867   0.2987   2.2398   H         1 1      0.0000
    10 H10      3.7288   0.1871   1.9366   H         1 1      0.0000
    11 N11      5.0213  -0.4029  -0.3208   N.pl3     1 1      0.0000
    12 O12      5.7367  -0.1702   0.6411   O.2       1 1      0.0000
    13 O13      5.4519  -0.6885  -1.4272   O.2       1 1      0.0000
    14 CL3     -0.6912  -0.1547   0.4085   C.3       1 1      0.0000
    15 CL1     -1.4057  -1.2039  -0.4898   C.3       1 1      0.0000
    16 H16     -1.2305  -0.9437  -1.5406   H         1 1      0.0000
    17 H17     -0.9343  -2.1800  -0.3214   H         1 1      0.0000
    18 CL      -2.9212  -1.3613  -0.2738   C.3       1 1      0.0000
    19 CL2     -3.5946  -0.0209  -0.5047   C.3       1 1      0.0000
    20 H20     -4.6502  -0.1537  -0.7323   H         1 1      0.0000
    21 H21     -3.5150   0.6081   0.3794   H         1 1      0.0000
    22 H22     -3.1319   0.5047  -1.3374   H         1 1      0.0000
    23 OL2     -0.9592  -0.3959   1.7842   O.3       1 1      0.0000
    24 H24     -1.9321  -0.3248   1.9469   H         1 1      0.0000
    25 N25     -3.4649  -2.3138  -1.2061   N.3       1 1      0.0000
    26 H26     -2.9623  -3.1902  -1.0655   H         1 1      0.0000
    27 C27     -4.8930  -2.6150  -1.0934   C.3       1 1      0.0000
    28 H28     -5.4924  -1.7882  -1.4687   H         1 1      0.0000
    29 H29     -5.1460  -3.5045  -1.6666   H         1 1      0.0000
    30 H30     -5.1695  -2.7905  -0.0558   H         1 1      0.0000
    31 OL1     -3.1702  -1.7323   1.0769   O.3       1 1      0.0000
    32 H32     -4.1438  -1.7113   1.2494   H         1 1      0.0000
    33 CL4     -1.0922   1.2873   0.0381   C.2       1 1      0.0000
    34 C34     -1.8364   3.3753   0.8824   C.3       1 1      0.0000
    35 H35     -2.3975   3.4589  -0.0565   H         1 1      0.0000
    36 H36     -2.4898   3.7194   1.6935   H         1 1      0.0000
    37 OL3     -1.0893   1.7087  -1.0857   O.2       1 1      0.0000
    38 OL4     -1.4362   1.9916   1.1094   O.3       1 1      0.0000
    39 C39     -0.6129   4.2061   0.8232   C.3       1 1      0.0000
    40 H40      0.0368   3.8788   0.0142   H         1 1      0.0000
    41 H41     -0.8642   5.2511   0.6544   H         1 1      0.0000
    42 H42     -0.0550   4.1378   1.7548   H         1 1      0.0000
@<TRIPOS>BOND
     1     1     2   ar
     2     1     6   ar
     3     1    11    1
     4     2     3   ar
     5     2     7    1
     6     3     4   ar
     7     3     8    1
     8     4     5   ar
     9     4    14    1
    10     5     6   ar
    11     5     9    1
    12     6    10    1
    13    11    12    2
    14    11    13    2
    15    14    15    1
    16    14    23    1
    17    14    33    1
    18    15    16    1
    19    15    17    1
    20    15    18    1
    21    18    19    1
    22    18    25    1
    23    18    31    1
    24    19    20    1
    25    19    21    1
    26    19    22    1
    27    23    24    1
    28    25    26    1
    29    25    27    1
    30    27    28    1
    31    27    29    1
    32    27    30    1
    33    31    32    1
    34    33    37    2
    35    33    38    1
    36    34    35    1
    37    34    36    1
    38    34    38    1
    39    34    39    1
    40    39    40    1
    41    39    41    1
    42    39    42    1
@<TRIPOS>SUBSTRUCTURE
     1 1           1 GROUP             0 ****  ****    0  
@<TRIPOS>MOLECULE
Molecule Name_00067
    42    42     1     0     0
SMALL
NO_CHARGES
****
Generated from the CSD

@<TRIPOS>ATOM
     1 C1       3.4877  -0.4174  -0.1172   C.ar      1 1      0.0000
     2 C2       2.6362  -0.7547  -1.1457   C.ar      1 1      0.0000
     3 C3       1.2729  -0.6554  -0.9351   C.ar      1 1      0.0000
     4 C4       0.7564  -0.2283   0.2832   C.ar      1 1      0.0000
     5 C5       1.6523   0.1056   1.2928   C.ar      1 1      0.0000
     6 C6       3.0193   0.0138   1.1040   C.ar      1 1      0.0000
     7 H7       3.0264  -1.0911  -2.1005   H         1 1      0.0000
     8 H8       0.5964  -0.9168  -1.7414   H         1 1      0.0000
     9 H9       1.2755   0.4467   2.2512   H         1 1      0.0000
    10 H10      3.7077   0.2758   1.9007   H         1 1      0.0000
    11 N11      4.9366  -0.5201  -0.3288   N.pl3     1 1      0.0000
    12 O12      5.6785  -0.2173   0.5927   O.2       1 1      0.0000
    13 O13      5.3362  -0.9037  -1.4171   O.2       1 1      0.0000
    14 CL3     -0.7526  -0.1313   0.5122   C.3       1 1      0.0000
    15 CL1     -1.5017  -1.2423  -0.2770   C.3       1 1      0.0000
    16 H16     -1.3485  -1.0747  -1.3499   H         1 1      0.0000
    17 H17     -1.0388  -2.2075  -0.0371   H         1 1      0.0000
    18 CL      -3.0135  -1.3586  -0.0139   C.3       1 1      0.0000
    19 CL2     -3.6761  -0.0349  -0.3487   C.3       1 1      0.0000
    20 H20     -4.7362  -0.1742  -0.5497   H         1 1      0.0000
    21 H21     -3.5769   0.6659   0.4776   H         1 1      0.0000
    22 H22     -3.2202   0.4128  -1.2294   H         1 1      0.0000
    23 OL2     -0.9893  -0.2522   1.9093   O.3       1 1      0.0000
    24 H24     -1.9569  -0.1541   2.0884   H         1 1      0.0000
    25 N25     -3.5903  -2.3828  -0.8448   N.3       1 1      0.0000
    26 H26     -4.5843  -2.4254  -0.6204   H         1 1      0.0000
    27 C27     -3.4847  -2.2024  -2.2937   C.3       1 1      0.0000
    28 H28     -2.4422  -2.1626  -2.6025   H         1 1      0.0000
    29 H29     -3.9631  -3.0253  -2.8207   H         1 1      0.0000
    30 H30     -3.9654  -1.2767  -2.6032   H         1 1      0.0000
    31 OL1     -3.2349  -1.6041   1.3697   O.3       1 1      0.0000
    32 H32     -4.2073  -1.6535   1.5433   H         1 1      0.0000
    33 CL4     -1.1454   1.2798   0.0309   C.2       1 1      0.0000
    34 C34     -1.8459   3.4409   0.7131   C.3       1 1      0.0000
    35 H35     -2.4275   3.4532  -0.2169   H         1 1      0.0000
    36 H36     -2.4765   3.8603   1.5067   H         1 1      0.0000
    37 OL3     -1.1635   1.6056  -1.1240   O.2       1 1      0.0000
    38 OL4     -1.4565   2.0758   1.0467   O.3       1 1      0.0000
    39 C39     -0.6147   4.2474   0.5576   C.3       1 1      0.0000
    40 H40      0.0125   3.8449  -0.2351   H         1 1      0.0000
    41 H41     -0.8577   5.2779   0.3073   H         1 1      0.0000
    42 H42     -0.0362   4.2498   1.4791   H         1 1      0.0000
@<TRIPOS>BOND
     1     1     2   ar
     2     1     6   ar
     3     1    11    1
     4     2     3   ar
     5     2     7    1
     6     3     4   ar
     7     3     8    1
     8     4     5   ar
     9     4    14    1
    10     5     6   ar
    11     5     9    1
    12     6    10    1
    13    11    12    2
    14    11    13    2
    15    14    15    1
    16    14    23    1
    17    14    33    1
    18    15    16    1
    19    15    17    1
    20    15    18    1
    21    18    19    1
    22    18    25    1
    23    18    31    1
    24    19    20    1
    25    19    21    1
    26    19    22    1
    27    23    24    1
    28    25    26    1
    29    25    27    1
    30    27    28    1
    31    27    29    1
    32    27    30    1
    33    31    32    1
    34    33    37    2
    35    33    38    1
    36    34    35    1
    37    34    36    1
    38    34    38    1
    39    34    39    1
    40    39    40    1
    41    39    41    1
    42    39    42    1
@<TRIPOS>SUBSTRUCTURE
     1 1           1 GROUP             0 ****  ****    0  
@<TRIPOS>MOLECULE
Molecule Name_00068
    42    42     1     0     0
SMALL
NO_CHARGES
****
Generated from the CSD

@<TRIPOS>ATOM
     1 C1       3.4626  -0.4230  -0.1416   C.ar      1 1      0.0000
     2 C2       2.6288  -0.6467  -1.2146   C.ar      1 1      0.0000
     3 C3       1.2637  -0.5271  -1.0274   C.ar      1 1      0.0000
     4 C4       0.7280  -0.1916   0.2111   C.ar      1 1      0.0000
     5 C5       1.6066   0.0289   1.2659   C.ar      1 1      0.0000
     6 C6       2.9751  -0.0851   1.1013   C.ar      1 1      0.0000
     7 H7       3.0340  -0.9109  -2.1858   H         1 1      0.0000
     8 H8       0.6011  -0.6991  -1.8686   H         1 1      0.0000
     9 H9       1.2148   0.2971   2.2414   H         1 1      0.0000
    10 H10      3.6498   0.0880   1.9331   H         1 1      0.0000
    11 N11      4.9132  -0.5483  -0.3281   N.pl3     1 1      0.0000
    12 O12      5.6393  -0.3469   0.6329   O.2       1 1      0.0000
    13 O13      5.3299  -0.8484  -1.4361   O.2       1 1      0.0000
    14 CL3     -0.7832  -0.0719   0.4130   C.3       1 1      0.0000
    15 CL1     -1.5411  -1.0894  -0.4862   C.3       1 1      0.0000
    16 H16     -1.3565  -0.8347  -1.5368   H         1 1      0.0000
    17 H17     -1.1099  -2.0843  -0.3200   H         1 1      0.0000
    18 CL      -3.0616  -1.1849  -0.2688   C.3       1 1      0.0000
    19 CL2     -3.6805   0.1809  -0.5030   C.3       1 1      0.0000
    20 H20     -4.7385   0.0895  -0.7395   H         1 1      0.0000
    21 H21     -3.5839   0.8052   0.3828   H         1 1      0.0000
    22 H22     -3.1909   0.6894  -1.3310   H         1 1      0.0000
    23 OL2     -1.0581  -0.3054   1.7886   O.3       1 1      0.0000
    24 H24     -2.0271  -0.1956   1.9534   H         1 1      0.0000
    25 N25     -3.6439  -2.1172  -1.1981   N.3       1 1      0.0000
    26 H26     -3.4547  -1.7628  -2.1356   H         1 1      0.0000
    27 C27     -3.1537  -3.4959  -1.1533   C.3       1 1      0.0000
    28 H28     -3.3270  -3.9352  -0.1731   H         1 1      0.0000
    29 H29     -3.6611  -4.1099  -1.8944   H         1 1      0.0000
    30 H30     -2.0855  -3.5322  -1.3569   H         1 1      0.0000
    31 OL1     -3.3242  -1.5418   1.0831   O.3       1 1      0.0000
    32 H32     -4.3016  -1.5783   1.2294   H         1 1      0.0000
    33 CL4     -1.1265   1.3859   0.0467   C.2       1 1      0.0000
    34 C34     -1.7869   3.4995   0.8969   C.3       1 1      0.0000
    35 H35     -2.3443   3.6080  -0.0417   H         1 1      0.0000
    36 H36     -2.4260   3.8671   1.7092   H         1 1      0.0000
    37 OL3     -1.1069   1.8100  -1.0759   O.2       1 1      0.0000
    38 OL4     -1.4421   2.1004   1.1200   O.3       1 1      0.0000
    39 C39     -0.5314   4.2811   0.8398   C.3       1 1      0.0000
    40 H40      0.1048   3.9305   0.0298   H         1 1      0.0000
    41 H41     -0.7408   5.3358   0.6740   H         1 1      0.0000
    42 H42      0.0235   4.1881   1.7711   H         1 1      0.0000
@<TRIPOS>BOND
     1     1     2   ar
     2     1     6   ar
     3     1    11    1
     4     2     3   ar
     5     2     7    1
     6     3     4   ar
     7     3     8    1
     8     4     5   ar
     9     4    14    1
    10     5     6   ar
    11     5     9    1
    12     6    10    1
    13    11    12    2
    14    11    13    2
    15    14    15    1
    16    14    23    1
    17    14    33    1
    18    15    16    1
    19    15    17    1
    20    15    18    1
    21    18    19    1
    22    18    25    1
    23    18    31    1
    24    19    20    1
    25    19    21    1
    26    19    22    1
    27    23    24    1
    28    25    26    1
    29    25    27    1
    30    27    28    1
    31    27    29    1
    32    27    30    1
    33    31    32    1
    34    33    37    2
    35    33    38    1
    36    34    35    1
    37    34    36    1
    38    34    38    1
    39    34    39    1
    40    39    40    1
    41    39    41    1
    42    39    42    1
@<TRIPOS>SUBSTRUCTURE
     1 1           1 GROUP             0 ****  ****    0  
@<TRIPOS>MOLECULE
Molecule Name_00069
    42    42     1     0     0
SMALL
NO_CHARGES
****
Generated from the CSD

@<TRIPOS>ATOM
     1 C1       3.6690  -0.4748  -0.1069   C.ar      1 1      0.0000
     2 C2       2.8441  -0.6600  -1.1941   C.ar      1 1      0.0000
     3 C3       1.4784  -0.5314  -1.0174   C.ar      1 1      0.0000
     4 C4       0.9334  -0.2248   0.2245   C.ar      1 1      0.0000
     5 C5       1.8032  -0.0427   1.2939   C.ar      1 1      0.0000
     6 C6       3.1721  -0.1664   1.1399   C.ar      1 1      0.0000
     7 H7       3.2566  -0.9014  -2.1681   H         1 1      0.0000
     8 H8       0.8228  -0.6732  -1.8697   H         1 1      0.0000
     9 H9       1.4041   0.2025   2.2724   H         1 1      0.0000
    10 H10      3.8399  -0.0234   1.9829   H         1 1      0.0000
    11 N11      5.1201  -0.6099  -0.2823   N.pl3     1 1      0.0000
    12 O12      5.8382  -0.4427   0.6911   O.2       1 1      0.0000
    13 O13      5.5452  -0.8835  -1.3939   O.2       1 1      0.0000
    14 CL3     -0.5786  -0.0950   0.4145   C.3       1 1      0.0000
    15 CL1     -1.3374  -1.0793  -0.5202   C.3       1 1      0.0000
    16 H16     -1.1404  -0.7968  -1.5614   H         1 1      0.0000
    17 H17     -0.9172  -2.0826  -0.3784   H         1 1      0.0000
    18 CL      -2.8607  -1.1662  -0.3196   C.3       1 1      0.0000
    19 CL2     -3.4637   0.2128  -0.5144   C.3       1 1      0.0000
    20 H20     -4.5227   0.1405  -0.7531   H         1 1      0.0000
    21 H21     -3.3600   0.8102   0.3891   H         1 1      0.0000
    22 H22     -2.9681   0.7392  -1.3274   H         1 1      0.0000
    23 OL2     -0.8700  -0.3636   1.7803   O.3       1 1      0.0000
    24 H24     -1.8395  -0.2483   1.9383   H         1 1      0.0000
    25 N25     -3.4437  -2.0616  -1.2843   N.3       1 1      0.0000
    26 H26     -2.9871  -2.9661  -1.1670   H         1 1      0.0000
    27 C27     -4.8861  -2.2934  -1.1907   C.3       1 1      0.0000
    28 H28     -5.4399  -1.4264  -1.5448   H         1 1      0.0000
    29 H29     -5.1786  -3.1513  -1.7925   H         1 1      0.0000
    30 H30     -5.1798  -2.4858  -0.1609   H         1 1      0.0000
    31 OL1     -3.1394  -1.5645   1.0173   O.3       1 1      0.0000
    32 H32     -4.1121  -1.4996   1.1836   H         1 1      0.0000
    33 CL4     -0.9033   1.3759   0.0854   C.2       1 1      0.0000
    34 C34     -1.5485   3.4725   0.9877   C.3       1 1      0.0000
    35 H35     -1.3661   4.0313   1.9139   H         1 1      0.0000
    36 H36     -0.9159   3.9086   0.2047   H         1 1      0.0000
    37 OL3     -0.8697   1.8302  -1.0250   O.2       1 1      0.0000
    38 OL4     -1.2205   2.0642   1.1752   O.3       1 1      0.0000
    39 C39     -2.9751   3.5674   0.6051   C.3       1 1      0.0000
    40 H40     -3.6113   3.1468   1.3810   H         1 1      0.0000
    41 H41     -3.2657   4.6050   0.4540   H         1 1      0.0000
    42 H42     -3.1635   3.0247  -0.3189   H         1 1      0.0000
@<TRIPOS>BOND
     1     1     2   ar
     2     1     6   ar
     3     1    11    1
     4     2     3   ar
     5     2     7    1
     6     3     4   ar
     7     3     8    1
     8     4     5   ar
     9     4    14    1
    10     5     6   ar
    11     5     9    1
    12     6    10    1
    13    11    12    2
    14    11    13    2
    15    14    15    1
    16    14    23    1
    17    14    33    1
    18    15    16    1
    19    15    17    1
    20    15    18    1
    21    18    19    1
    22    18    25    1
    23    18    31    1
    24    19    20    1
    25    19    21    1
    26    19    22    1
    27    23    24    1
    28    25    26    1
    29    25    27    1
    30    27    28    1
    31    27    29    1
    32    27    30    1
    33    31    32    1
    34    33    37    2
    35    33    38    1
    36    34    35    1
    37    34    36    1
    38    34    38    1
    39    34    39    1
    40    39    40    1
    41    39    41    1
    42    39    42    1
@<TRIPOS>SUBSTRUCTURE
     1 1           1 GROUP             0 ****  ****    0  
@<TRIPOS>MOLECULE
Molecule Name_00070
    42    42     1     0     0
SMALL
NO_CHARGES
****
Generated from the CSD

@<TRIPOS>ATOM
     1 C1       3.5861  -0.5597  -0.0865   C.ar      1 1      0.0000
     2 C2       2.7285  -0.8298  -1.1296   C.ar      1 1      0.0000
     3 C3       1.3701  -0.6641  -0.9287   C.ar      1 1      0.0000
     4 C4       0.8645  -0.2374   0.2942   C.ar      1 1      0.0000
     5 C5       1.7665   0.0273   1.3187   C.ar      1 1      0.0000
     6 C6       3.1287  -0.1315   1.1399   C.ar      1 1      0.0000
     7 H7       3.1101  -1.1651  -2.0883   H         1 1      0.0000
     8 H8       0.6890  -0.8723  -1.7466   H         1 1      0.0000
     9 H9       1.3984   0.3666   2.2812   H         1 1      0.0000
    10 H10      3.8219   0.0768   1.9482   H         1 1      0.0000
    11 N11      5.0298  -0.7332  -0.2877   N.pl3     1 1      0.0000
    12 O12      5.7772  -0.4896   0.6468   O.2       1 1      0.0000
    13 O13      5.4197  -1.1133  -1.3808   O.2       1 1      0.0000
    14 CL3     -0.6396  -0.0669   0.5121   C.3       1 1      0.0000
    15 CL1     -1.4376  -1.1199  -0.3082   C.3       1 1      0.0000
    16 H16     -1.2652  -0.9371  -1.3757   H         1 1      0.0000
    17 H17     -1.0277  -2.1129  -0.0858   H         1 1      0.0000
    18 CL      -2.9558  -1.1630  -0.0609   C.3       1 1      0.0000
    19 CL2     -3.5455   0.2005  -0.3719   C.3       1 1      0.0000
    20 H20     -4.6094   0.1210  -0.5852   H         1 1      0.0000
    21 H21     -3.4183   0.8770   0.4706   H         1 1      0.0000
    22 H22     -3.0583   0.6428  -1.2384   H         1 1      0.0000
    23 OL2     -0.8960  -0.2058   1.9040   O.3       1 1      0.0000
    24 H24     -1.8590  -0.0613   2.0769   H         1 1      0.0000
    25 N25     -3.5768  -2.1373  -0.9195   N.3       1 1      0.0000
    26 H26     -4.5739  -2.1330  -0.7047   H         1 1      0.0000
    27 C27     -3.4477  -1.9311  -2.3630   C.3       1 1      0.0000
    28 H28     -2.4015  -1.9390  -2.6617   H         1 1      0.0000
    29 H29     -3.9629  -2.7163  -2.9124   H         1 1      0.0000
    30 H30     -3.8766  -0.9751  -2.6559   H         1 1      0.0000
    31 OL1     -3.2034  -1.4267   1.3149   O.3       1 1      0.0000
    32 H32     -4.1787  -1.4292   1.4788   H         1 1      0.0000
    33 CL4     -0.9538   1.3729   0.0590   C.2       1 1      0.0000
    34 C34     -1.5480   3.5522   0.7831   C.3       1 1      0.0000
    35 H35     -1.3340   4.1896   1.6499   H         1 1      0.0000
    36 H36     -0.9306   3.9059  -0.0519   H         1 1      0.0000
    37 OL3     -0.9437   1.7244  -1.0885   O.2       1 1      0.0000
    38 OL4     -1.2333   2.1617   1.0895   O.3       1 1      0.0000
    39 C39     -2.9828   3.6339   0.4293   C.3       1 1      0.0000
    40 H40     -3.6037   3.2949   1.2560   H         1 1      0.0000
    41 H41     -3.2638   4.6578   0.1920   H         1 1      0.0000
    42 H42     -3.2025   3.0127  -0.4365   H         1 1      0.0000
@<TRIPOS>BOND
     1     1     2   ar
     2     1     6   ar
     3     1    11    1
     4     2     3   ar
     5     2     7    1
     6     3     4   ar
     7     3     8    1
     8     4     5   ar
     9     4    14    1
    10     5     6   ar
    11     5     9    1
    12     6    10    1
    13    11    12    2
    14    11    13    2
    15    14    15    1
    16    14    23    1
    17    14    33    1
    18    15    16    1
    19    15    17    1
    20    15    18    1
    21    18    19    1
    22    18    25    1
    23    18    31    1
    24    19    20    1
    25    19    21    1
    26    19    22    1
    27    23    24    1
    28    25    26    1
    29    25    27    1
    30    27    28    1
    31    27    29    1
    32    27    30    1
    33    31    32    1
    34    33    37    2
    35    33    38    1
    36    34    35    1
    37    34    36    1
    38    34    38    1
    39    34    39    1
    40    39    40    1
    41    39    41    1
    42    39    42    1
@<TRIPOS>SUBSTRUCTURE
     1 1           1 GROUP             0 ****  ****    0  
@<TRIPOS>MOLECULE
Molecule Name_00071
    42    42     1     0     0
SMALL
NO_CHARGES
****
Generated from the CSD

@<TRIPOS>ATOM
     1 C1       3.5619  -0.5640  -0.1103   C.ar      1 1      0.0000
     2 C2       2.7279  -0.7144  -1.1958   C.ar      1 1      0.0000
     3 C3       1.3690  -0.5303  -1.0163   C.ar      1 1      0.0000
     4 C4       0.8394  -0.2028   0.2269   C.ar      1 1      0.0000
     5 C5       1.7181  -0.0573   1.2947   C.ar      1 1      0.0000
     6 C6       3.0805  -0.2366   1.1378   C.ar      1 1      0.0000
     7 H7       3.1283  -0.9717  -2.1709   H         1 1      0.0000
     8 H8       0.7065  -0.6445  -1.8673   H         1 1      0.0000
     9 H9       1.3313   0.2032   2.2742   H         1 1      0.0000
    10 H10      3.7553  -0.1217   1.9796   H         1 1      0.0000
    11 N11      5.0059  -0.7581  -0.2887   N.pl3     1 1      0.0000
    12 O12      5.7322  -0.6212   0.6835   O.2       1 1      0.0000
    13 O13      5.4172  -1.0479  -1.4013   O.2       1 1      0.0000
    14 CL3     -0.6656  -0.0115   0.4201   C.3       1 1      0.0000
    15 CL1     -1.4659  -0.9631  -0.5138   C.3       1 1      0.0000
    16 H16     -1.2586  -0.6889  -1.5552   H         1 1      0.0000
    17 H17     -1.0875  -1.9831  -0.3726   H         1 1      0.0000
    18 CL      -2.9912  -0.9867  -0.3114   C.3       1 1      0.0000
    19 CL2     -3.5374   0.4151  -0.5115   C.3       1 1      0.0000
    20 H20     -4.5965   0.3847  -0.7590   H         1 1      0.0000
    21 H21     -3.4175   1.0085   0.3925   H         1 1      0.0000
    22 H22     -3.0147   0.9208  -1.3207   H         1 1      0.0000
    23 OL2     -0.9651  -0.2691   1.7863   O.3       1 1      0.0000
    24 H24     -1.9287  -0.1145   1.9464   H         1 1      0.0000
    25 N25     -3.6115  -1.8615  -1.2715   N.3       1 1      0.0000
    26 H26     -3.3956  -1.4911  -2.1970   H         1 1      0.0000
    27 C27     -3.1926  -3.2642  -1.2621   C.3       1 1      0.0000
    28 H28     -3.3974  -3.7214  -0.2963   H         1 1      0.0000
    29 H29     -3.7236  -3.8304  -2.0245   H         1 1      0.0000
    30 H30     -2.1258  -3.3495  -1.4581   H         1 1      0.0000
    31 OL1     -3.2844  -1.3675   1.0276   O.3       1 1      0.0000
    32 H32     -4.2638  -1.3579   1.1650   H         1 1      0.0000
    33 CL4     -0.9306   1.4717   0.0927   C.2       1 1      0.0000
    34 C34     -1.4904   3.5917   0.9976   C.3       1 1      0.0000
    35 H35     -1.2854   4.1416   1.9244   H         1 1      0.0000
    36 H36     -0.8407   4.0027   0.2150   H         1 1      0.0000
    37 OL3     -0.8788   1.9256  -1.0171   O.2       1 1      0.0000
    38 OL4     -1.2195   2.1710   1.1835   O.3       1 1      0.0000
    39 C39     -2.9120   3.7447   0.6154   C.3       1 1      0.0000
    40 H40     -3.5646   3.3492   1.3910   H         1 1      0.0000
    41 H41     -3.1604   4.7933   0.4656   H         1 1      0.0000
    42 H42     -3.1224   3.2111  -0.3091   H         1 1      0.0000
@<TRIPOS>BOND
     1     1     2   ar
     2     1     6   ar
     3     1    11    1
     4     2     3   ar
     5     2     7    1
     6     3     4   ar
     7     3     8    1
     8     4     5   ar
     9     4    14    1
    10     5     6   ar
    11     5     9    1
    12     6    10    1
    13    11    12    2
    14    11    13    2
    15    14    15    1
    16    14    23    1
    17    14    33    1
    18    15    16    1
    19    15    17    1
    20    15    18    1
    21    18    19    1
    22    18    25    1
    23    18    31    1
    24    19    20    1
    25    19    21    1
    26    19    22    1
    27    23    24    1
    28    25    26    1
    29    25    27    1
    30    27    28    1
    31    27    29    1
    32    27    30    1
    33    31    32    1
    34    33    37    2
    35    33    38    1
    36    34    35    1
    37    34    36    1
    38    34    38    1
    39    34    39    1
    40    39    40    1
    41    39    41    1
    42    39    42    1
@<TRIPOS>SUBSTRUCTURE
     1 1           1 GROUP             0 ****  ****    0  
@<TRIPOS>MOLECULE
Molecule Name_00072
    42    42     1     0     0
SMALL
NO_CHARGES
****
Generated from the CSD

@<TRIPOS>ATOM
     1 C1       3.6257  -0.4261  -0.0457   C.ar      1 1      0.0000
     2 C2       3.0116   0.7142  -0.5141   C.ar      1 1      0.0000
     3 C3       1.6407   0.8322  -0.3738   C.ar      1 1      0.0000
     4 C4       0.8836  -0.1701   0.2224   C.ar      1 1      0.0000
     5 C5       1.5451  -1.3026   0.6843   C.ar      1 1      0.0000
     6 C6       2.9150  -1.4416   0.5545   C.ar      1 1      0.0000
     7 H7       3.5907   1.5029  -0.9829   H         1 1      0.0000
     8 H8       1.1507   1.7287  -0.7379   H         1 1      0.0000
     9 H9       0.9784  -2.0972   1.1582   H         1 1      0.0000
    10 H10      3.4188  -2.3312   0.9177   H         1 1      0.0000
    11 N11      5.0800  -0.5629  -0.1902   N.pl3     1 1      0.0000
    12 O12      5.6097  -1.5797   0.2301   O.2       1 1      0.0000
    13 O13      5.6961   0.3462  -0.7244   O.2       1 1      0.0000
    14 CL3     -0.6333  -0.0372   0.3642   C.3       1 1      0.0000
    15 CL1     -1.3522  -1.2880  -0.2164   C.3       1 1      0.0000
    16 H16     -1.1614  -1.3331  -1.2954   H         1 1      0.0000
    17 H17     -0.8964  -2.1832   0.2245   H         1 1      0.0000
    18 CL      -2.8721  -1.3633   0.0124   C.3       1 1      0.0000
    19 CL2     -3.5236  -0.1320  -0.5899   C.3       1 1      0.0000
    20 H20     -4.5814  -0.3067  -0.7749   H         1 1      0.0000
    21 H21     -3.4330   0.7196   0.0812   H         1 1      0.0000
    22 H22     -3.0529   0.1300  -1.5352   H         1 1      0.0000
    23 OL2     -0.9286   0.1235   1.7461   O.3       1 1      0.0000
    24 H24     -1.9026   0.2505   1.8614   H         1 1      0.0000
    25 N25     -3.4189  -2.5306  -0.6282   N.3       1 1      0.0000
    26 H26     -2.9310  -3.3394  -0.2430   H         1 1      0.0000
    27 C27     -4.8526  -2.7732  -0.4584   C.3       1 1      0.0000
    28 H28     -5.4352  -2.0767  -1.0577   H         1 1      0.0000
    29 H29     -5.1118  -3.7841  -0.7659   H         1 1      0.0000
    30 H30     -5.1439  -2.6504   0.5827   H         1 1      0.0000
    31 OL1     -3.1414  -1.3436   1.4092   O.3       1 1      0.0000
    32 H32     -4.1164  -1.2648   1.5548   H         1 1      0.0000
    33 CL4     -1.0011   1.2465  -0.4065   C.2       1 1      0.0000
    34 C34     -1.6781   3.5105  -0.2003   C.3       1 1      0.0000
    35 H35     -0.8536   3.8833  -0.8205   H         1 1      0.0000
    36 H36     -2.5516   3.3783  -0.8506   H         1 1      0.0000
    37 OL3     -1.0029   1.3237  -1.6041   O.2       1 1      0.0000
    38 OL4     -1.3114   2.2410   0.4163   O.3       1 1      0.0000
    39 C39     -1.9844   4.4764   0.8784   C.3       1 1      0.0000
    40 H40     -1.1198   4.6221   1.5227   H         1 1      0.0000
    41 H41     -2.2643   5.4423   0.4632   H         1 1      0.0000
    42 H42     -2.8086   4.1199   1.4928   H         1 1      0.0000
@<TRIPOS>BOND
     1     1     2   ar
     2     1     6   ar
     3     1    11    1
     4     2     3   ar
     5     2     7    1
     6     3     4   ar
     7     3     8    1
     8     4     5   ar
     9     4    14    1
    10     5     6   ar
    11     5     9    1
    12     6    10    1
    13    11    12    2
    14    11    13    2
    15    14    15    1
    16    14    23    1
    17    14    33    1
    18    15    16    1
    19    15    17    1
    20    15    18    1
    21    18    19    1
    22    18    25    1
    23    18    31    1
    24    19    20    1
    25    19    21    1
    26    19    22    1
    27    23    24    1
    28    25    26    1
    29    25    27    1
    30    27    28    1
    31    27    29    1
    32    27    30    1
    33    31    32    1
    34    33    37    2
    35    33    38    1
    36    34    35    1
    37    34    36    1
    38    34    38    1
    39    34    39    1
    40    39    40    1
    41    39    41    1
    42    39    42    1
@<TRIPOS>SUBSTRUCTURE
     1 1           1 GROUP             0 ****  ****    0  
@<TRIPOS>MOLECULE
Molecule Name_00073
    42    42     1     0     0
SMALL
NO_CHARGES
****
Generated from the CSD

@<TRIPOS>ATOM
     1 C1       3.5441  -0.5015  -0.0306   C.ar      1 1      0.0000
     2 C2       2.9372   0.6064  -0.5792   C.ar      1 1      0.0000
     3 C3       1.5735   0.7645  -0.4116   C.ar      1 1      0.0000
     4 C4       0.8162  -0.1667   0.2904   C.ar      1 1      0.0000
     5 C5       1.4703  -1.2684   0.8305   C.ar      1 1      0.0000
     6 C6       2.8330  -1.4463   0.6753   C.ar      1 1      0.0000
     7 H7       3.5165   1.3395  -1.1308   H         1 1      0.0000
     8 H8       1.0893   1.6360  -0.8386   H         1 1      0.0000
     9 H9       0.9035  -2.0071   1.3874   H         1 1      0.0000
    10 H10      3.3311  -2.3115   1.1004   H         1 1      0.0000
    11 N11      4.9908  -0.6803  -0.2030   N.pl3     1 1      0.0000
    12 O12      5.5140  -1.6677   0.2893   O.2       1 1      0.0000
    13 O13      5.6072   0.1662  -0.8312   O.2       1 1      0.0000
    14 CL3     -0.6932   0.0094   0.4622   C.3       1 1      0.0000
    15 CL1     -1.4515  -1.2722   0.0140   C.3       1 1      0.0000
    16 H16     -1.2926  -1.4159  -1.0615   H         1 1      0.0000
    17 H17     -0.9999  -2.1346   0.5198   H         1 1      0.0000
    18 CL      -2.9653  -1.2953   0.2895   C.3       1 1      0.0000
    19 CL2     -3.6117  -0.1114  -0.4062   C.3       1 1      0.0000
    20 H20     -4.6751  -0.2858  -0.5562   H         1 1      0.0000
    21 H21     -3.4970   0.7938   0.1863   H         1 1      0.0000
    22 H22     -3.1558   0.0602  -1.3791   H         1 1      0.0000
    23 OL2     -0.9445   0.2961   1.8323   O.3       1 1      0.0000
    24 H24     -1.9122   0.4527   1.9632   H         1 1      0.0000
    25 N25     -3.5509  -2.5051  -0.2258   N.3       1 1      0.0000
    26 H26     -4.5461  -2.4734  -0.0048   H         1 1      0.0000
    27 C27     -3.4384  -2.7380  -1.6667   C.3       1 1      0.0000
    28 H28     -2.3944  -2.7965  -1.9676   H         1 1      0.0000
    29 H29     -3.9243  -3.6706  -1.9458   H         1 1      0.0000
    30 H30     -3.9074  -1.9309  -2.2256   H         1 1      0.0000
    31 OL1     -3.1942  -1.1421   1.6852   O.3       1 1      0.0000
    32 H32     -4.1677  -1.1313   1.8593   H         1 1      0.0000
    33 CL4     -1.0604   1.2282  -0.4077   C.2       1 1      0.0000
    34 C34     -1.6924   3.5143  -0.3823   C.3       1 1      0.0000
    35 H35     -0.8793   3.8157  -1.0542   H         1 1      0.0000
    36 H36     -2.5859   3.3432  -0.9953   H         1 1      0.0000
    37 OL3     -1.0943   1.2011  -1.6070   O.2       1 1      0.0000
    38 OL4     -1.3305   2.2962   0.3330   O.3       1 1      0.0000
    39 C39     -1.9519   4.5760   0.6157   C.3       1 1      0.0000
    40 H40     -1.0673   4.7602   1.2217   H         1 1      0.0000
    41 H41     -2.2267   5.5075   0.1252   H         1 1      0.0000
    42 H42     -2.7646   4.2904   1.2803   H         1 1      0.0000
@<TRIPOS>BOND
     1     1     2   ar
     2     1     6   ar
     3     1    11    1
     4     2     3   ar
     5     2     7    1
     6     3     4   ar
     7     3     8    1
     8     4     5   ar
     9     4    14    1
    10     5     6   ar
    11     5     9    1
    12     6    10    1
    13    11    12    2
    14    11    13    2
    15    14    15    1
    16    14    23    1
    17    14    33    1
    18    15    16    1
    19    15    17    1
    20    15    18    1
    21    18    19    1
    22    18    25    1
    23    18    31    1
    24    19    20    1
    25    19    21    1
    26    19    22    1
    27    23    24    1
    28    25    26    1
    29    25    27    1
    30    27    28    1
    31    27    29    1
    32    27    30    1
    33    31    32    1
    34    33    37    2
    35    33    38    1
    36    34    35    1
    37    34    36    1
    38    34    38    1
    39    34    39    1
    40    39    40    1
    41    39    41    1
    42    39    42    1
@<TRIPOS>SUBSTRUCTURE
     1 1           1 GROUP             0 ****  ****    0  
@<TRIPOS>MOLECULE
Molecule Name_00074
    42    42     1     0     0
SMALL
NO_CHARGES
****
Generated from the CSD

@<TRIPOS>ATOM
     1 C1       3.5200  -0.5110  -0.0605   C.ar      1 1      0.0000
     2 C2       2.9521   0.6617  -0.5066   C.ar      1 1      0.0000
     3 C3       1.5867   0.8308  -0.3657   C.ar      1 1      0.0000
     4 C4       0.7896  -0.1527   0.2093   C.ar      1 1      0.0000
     5 C5       1.4050  -1.3194   0.6492   C.ar      1 1      0.0000
     6 C6       2.7687  -1.5095   0.5183   C.ar      1 1      0.0000
     7 H7       3.5627   1.4362  -0.9588   H         1 1      0.0000
     8 H8       1.1331   1.7529  -0.7123   H         1 1      0.0000
     9 H9       0.8066  -2.1003   1.1063   H         1 1      0.0000
    10 H10      3.2363  -2.4254   0.8642   H         1 1      0.0000
    11 N11      4.9681  -0.7020  -0.2060   N.pl3     1 1      0.0000
    12 O12      5.4565  -1.7471   0.1945   O.2       1 1      0.0000
    13 O13      5.6204   0.1926  -0.7210   O.2       1 1      0.0000
    14 CL3     -0.7213   0.0370   0.3519   C.3       1 1      0.0000
    15 CL1     -1.4876  -1.1732  -0.2536   C.3       1 1      0.0000
    16 H16     -1.2957  -1.2056  -1.3329   H         1 1      0.0000
    17 H17     -1.0689  -2.0939   0.1713   H         1 1      0.0000
    18 CL      -3.0099  -1.1924  -0.0294   C.3       1 1      0.0000
    19 CL2     -3.6110   0.0723  -0.6147   C.3       1 1      0.0000
    20 H20     -4.6719  -0.0620  -0.8155   H         1 1      0.0000
    21 H21     -3.4995   0.9071   0.0741   H         1 1      0.0000
    22 H22     -3.1200   0.3361  -1.5491   H         1 1      0.0000
    23 OL2     -1.0127   0.1825   1.7363   O.3       1 1      0.0000
    24 H24     -1.9812   0.3454   1.8529   H         1 1      0.0000
    25 N25     -3.6001  -2.3278  -0.6885   N.3       1 1      0.0000
    26 H26     -3.4029  -2.2312  -1.6846   H         1 1      0.0000
    27 C27     -3.1271  -3.6527  -0.2836   C.3       1 1      0.0000
    28 H28     -3.3096  -3.8203   0.7758   H         1 1      0.0000
    29 H29     -3.6391  -4.4327  -0.8433   H         1 1      0.0000
    30 H30     -2.0587  -3.7523  -0.4634   H         1 1      0.0000
    31 OL1     -3.2822  -1.1827   1.3669   O.3       1 1      0.0000
    32 H32     -4.2606  -1.1693   1.5109   H         1 1      0.0000
    33 CL4     -1.0370   1.3487  -0.3942   C.2       1 1      0.0000
    34 C34     -1.6274   3.6325  -0.1452   C.3       1 1      0.0000
    35 H35     -0.7870   3.9856  -0.7556   H         1 1      0.0000
    36 H36     -2.5030   3.5468  -0.8004   H         1 1      0.0000
    37 OL3     -1.0315   1.4495  -1.5901   O.2       1 1      0.0000
    38 OL4     -1.3118   2.3380   0.4472   O.3       1 1      0.0000
    39 C39     -1.9003   4.5881   0.9516   C.3       1 1      0.0000
    40 H40     -1.0331   4.6878   1.6010   H         1 1      0.0000
    41 H41     -2.1415   5.5720   0.5548   H         1 1      0.0000
    42 H42     -2.7397   4.2514   1.5565   H         1 1      0.0000
@<TRIPOS>BOND
     1     1     2   ar
     2     1     6   ar
     3     1    11    1
     4     2     3   ar
     5     2     7    1
     6     3     4   ar
     7     3     8    1
     8     4     5   ar
     9     4    14    1
    10     5     6   ar
    11     5     9    1
    12     6    10    1
    13    11    12    2
    14    11    13    2
    15    14    15    1
    16    14    23    1
    17    14    33    1
    18    15    16    1
    19    15    17    1
    20    15    18    1
    21    18    19    1
    22    18    25    1
    23    18    31    1
    24    19    20    1
    25    19    21    1
    26    19    22    1
    27    23    24    1
    28    25    26    1
    29    25    27    1
    30    27    28    1
    31    27    29    1
    32    27    30    1
    33    31    32    1
    34    33    37    2
    35    33    38    1
    36    34    35    1
    37    34    36    1
    38    34    38    1
    39    34    39    1
    40    39    40    1
    41    39    41    1
    42    39    42    1
@<TRIPOS>SUBSTRUCTURE
     1 1           1 GROUP             0 ****  ****    0  
@<TRIPOS>MOLECULE
Molecule Name_00075
    42    42     1     0     0
SMALL
NO_CHARGES
****
Generated from the CSD

@<TRIPOS>ATOM
     1 C1       3.5523  -0.4963  -0.1778   C.ar      1 1      0.0000
     2 C2       2.9966  -0.7810   1.0497   C.ar      1 1      0.0000
     3 C3       1.6237  -0.6904   1.1911   C.ar      1 1      0.0000
     4 C4       0.8080  -0.3192   0.1281   C.ar      1 1      0.0000
     5 C5       1.4109  -0.0442  -1.0944   C.ar      1 1      0.0000
     6 C6       2.7816  -0.1285  -1.2582   C.ar      1 1      0.0000
     7 H7       3.6222  -1.0700   1.8877   H         1 1      0.0000
     8 H8       1.1789  -0.9158   2.1542   H         1 1      0.0000
     9 H9       0.7966   0.2425  -1.9414   H         1 1      0.0000
    10 H10      3.2397   0.0903  -2.2171   H         1 1      0.0000
    11 N11      5.0084  -0.5879  -0.3394   N.pl3     1 1      0.0000
    12 O12      5.4859  -0.3325  -1.4339   O.2       1 1      0.0000
    13 O13      5.6780  -0.9155   0.6279   O.2       1 1      0.0000
    14 CL3     -0.7083  -0.2107   0.2950   C.3       1 1      0.0000
    15 CL1     -1.4370  -1.2466  -0.6074   C.3       1 1      0.0000
    16 H16     -1.4128  -0.8879  -1.6435   H         1 1      0.0000
    17 H17     -0.8692  -2.1849  -0.5829   H         1 1      0.0000
    18 CL      -2.8967  -1.5613  -0.2356   C.3       1 1      0.0000
    19 CL2     -2.9263  -2.2262   1.1284   C.3       1 1      0.0000
    20 H20     -3.6393  -3.0479   1.1416   H         1 1      0.0000
    21 H21     -1.9465  -2.6236   1.3851   H         1 1      0.0000
    22 H22     -3.2155  -1.5141   1.8985   H         1 1      0.0000
    23 OL2     -1.0117  -0.4291   1.6671   O.3       1 1      0.0000
    24 H24     -1.8990  -0.0438   1.8729   H         1 1      0.0000
    25 N25     -3.6708  -0.3494  -0.1713   N.3       1 1      0.0000
    26 H26     -3.2314   0.2494   0.5279   H         1 1      0.0000
    27 C27     -3.7806   0.4364  -1.4016   C.3       1 1      0.0000
    28 H28     -4.6476   0.1263  -1.9812   H         1 1      0.0000
    29 H29     -3.8857   1.4953  -1.1748   H         1 1      0.0000
    30 H30     -2.8954   0.3087  -2.0211   H         1 1      0.0000
    31 OL1     -3.4329  -2.4901  -1.1703   O.3       1 1      0.0000
    32 H32     -4.3628  -2.7119  -0.9167   H         1 1      0.0000
    33 CL4     -1.0563   1.2390  -0.0979   C.2       1 1      0.0000
    34 C34     -1.7049   3.3706   0.7157   C.3       1 1      0.0000
    35 H35     -0.8731   3.8868   0.2208   H         1 1      0.0000
    36 H36     -2.5773   3.4321   0.0534   H         1 1      0.0000
    37 OL3     -1.0519   1.6389  -1.2294   O.2       1 1      0.0000
    38 OL4     -1.3573   1.9764   0.9641   O.3       1 1      0.0000
    39 C39     -2.0035   4.0109   2.0163   C.3       1 1      0.0000
    40 H40     -1.1398   3.9642   2.6764   H         1 1      0.0000
    41 H41     -2.2691   5.0570   1.8792   H         1 1      0.0000
    42 H42     -2.8348   3.5120   2.5100   H         1 1      0.0000
@<TRIPOS>BOND
     1     1     2   ar
     2     1     6   ar
     3     1    11    1
     4     2     3   ar
     5     2     7    1
     6     3     4   ar
     7     3     8    1
     8     4     5   ar
     9     4    14    1
    10     5     6   ar
    11     5     9    1
    12     6    10    1
    13    11    12    2
    14    11    13    2
    15    14    15    1
    16    14    23    1
    17    14    33    1
    18    15    16    1
    19    15    17    1
    20    15    18    1
    21    18    19    1
    22    18    25    1
    23    18    31    1
    24    19    20    1
    25    19    21    1
    26    19    22    1
    27    23    24    1
    28    25    26    1
    29    25    27    1
    30    27    28    1
    31    27    29    1
    32    27    30    1
    33    31    32    1
    34    33    37    2
    35    33    38    1
    36    34    35    1
    37    34    36    1
    38    34    38    1
    39    34    39    1
    40    39    40    1
    41    39    41    1
    42    39    42    1
@<TRIPOS>SUBSTRUCTURE
     1 1           1 GROUP             0 ****  ****    0  
@<TRIPOS>MOLECULE
Molecule Name_00076
    42    42     1     0     0
SMALL
NO_CHARGES
****
Generated from the CSD

@<TRIPOS>ATOM
     1 C1       3.4611  -0.2940  -0.2168   C.ar      1 1      0.0000
     2 C2       2.6044   0.2086  -1.1708   C.ar      1 1      0.0000
     3 C3       1.2422   0.1266  -0.9455   C.ar      1 1      0.0000
     4 C4       0.7320  -0.4499   0.2124   C.ar      1 1      0.0000
     5 C5       1.6330  -0.9413   1.1505   C.ar      1 1      0.0000
     6 C6       2.9990  -0.8697   0.9458   C.ar      1 1      0.0000
     7 H7       2.9897   0.6592  -2.0795   H         1 1      0.0000
     8 H8       0.5617   0.5228  -1.6912   H         1 1      0.0000
     9 H9       1.2612  -1.3912   2.0650   H         1 1      0.0000
    10 H10      3.6914  -1.2586   1.6851   H         1 1      0.0000
    11 N11      4.9088  -0.2136  -0.4458   N.pl3     1 1      0.0000
    12 O12      5.6552  -0.6637   0.4095   O.2       1 1      0.0000
    13 O13      5.3027   0.2998  -1.4813   O.2       1 1      0.0000
    14 CL3     -0.7757  -0.5467   0.4496   C.3       1 1      0.0000
    15 CL1     -1.5320  -0.7547  -0.8932   C.3       1 1      0.0000
    16 H16     -1.5855   0.2066  -1.4184   H         1 1      0.0000
    17 H17     -0.9376  -1.4281  -1.5229   H         1 1      0.0000
    18 CL      -2.9550  -1.3310  -0.7874   C.3       1 1      0.0000
    19 CL2     -2.8753  -2.7464  -0.2454   C.3       1 1      0.0000
    20 H20     -3.5470  -3.4064  -0.7904   H         1 1      0.0000
    21 H21     -1.8649  -3.1388  -0.3388   H         1 1      0.0000
    22 H22     -3.1534  -2.7729   0.8061   H         1 1      0.0000
    23 OL2     -1.0075  -1.6332   1.3375   O.3       1 1      0.0000
    24 H24     -1.4151  -1.2941   2.1724   H         1 1      0.0000
    25 N25     -3.7514  -0.5396   0.1134   N.3       1 1      0.0000
    26 H26     -3.2860  -0.5602   1.0208   H         1 1      0.0000
    27 C27     -3.9501   0.8682  -0.2353   C.3       1 1      0.0000
    28 H28     -4.7373   0.9740  -0.9789   H         1 1      0.0000
    29 H29     -4.2326   1.4466   0.6419   H         1 1      0.0000
    30 H30     -3.0376   1.2967  -0.6444   H         1 1      0.0000
    31 OL1     -3.5317  -1.4073  -2.0856   O.3       1 1      0.0000
    32 H32     -4.4365  -1.8013  -2.0207   H         1 1      0.0000
    33 CL4     -1.1650   0.7816   1.1287   C.2       1 1      0.0000
    34 C34     -1.2438   3.1396   0.8835   C.3       1 1      0.0000
    35 H35     -2.3129   3.1958   1.1228   H         1 1      0.0000
    36 H36     -0.6845   3.3216   1.8095   H         1 1      0.0000
    37 OL3     -1.6350   0.8504   2.2308   O.2       1 1      0.0000
    38 OL4     -0.9156   1.8244   0.3461   O.3       1 1      0.0000
    39 C39     -0.8931   4.1552  -0.1344   C.3       1 1      0.0000
    40 H40     -1.4514   3.9890  -1.0534   H         1 1      0.0000
    41 H41     -1.1220   5.1563   0.2248   H         1 1      0.0000
    42 H42      0.1682   4.1141  -0.3705   H         1 1      0.0000
@<TRIPOS>BOND
     1     1     2   ar
     2     1     6   ar
     3     1    11    1
     4     2     3   ar
     5     2     7    1
     6     3     4   ar
     7     3     8    1
     8     4     5   ar
     9     4    14    1
    10     5     6   ar
    11     5     9    1
    12     6    10    1
    13    11    12    2
    14    11    13    2
    15    14    15    1
    16    14    23    1
    17    14    33    1
    18    15    16    1
    19    15    17    1
    20    15    18    1
    21    18    19    1
    22    18    25    1
    23    18    31    1
    24    19    20    1
    25    19    21    1
    26    19    22    1
    27    23    24    1
    28    25    26    1
    29    25    27    1
    30    27    28    1
    31    27    29    1
    32    27    30    1
    33    31    32    1
    34    33    37    2
    35    33    38    1
    36    34    35    1
    37    34    36    1
    38    34    38    1
    39    34    39    1
    40    39    40    1
    41    39    41    1
    42    39    42    1
@<TRIPOS>SUBSTRUCTURE
     1 1           1 GROUP             0 ****  ****    0  
@<TRIPOS>MOLECULE
Molecule Name_00077
    42    42     1     0     0
SMALL
NO_CHARGES
****
Generated from the CSD

@<TRIPOS>ATOM
     1 C1       3.5189  -0.3340  -0.1398   C.ar      1 1      0.0000
     2 C2       2.7224  -0.6216  -1.2258   C.ar      1 1      0.0000
     3 C3       1.3497  -0.5352  -1.0805   C.ar      1 1      0.0000
     4 C4       0.7699  -0.1700   0.1293   C.ar      1 1      0.0000
     5 C5       1.6118   0.1151   1.1986   C.ar      1 1      0.0000
     6 C6       2.9870   0.0352   1.0757   C.ar      1 1      0.0000
     7 H7       3.1622  -0.9095  -2.1749   H         1 1      0.0000
     8 H8       0.7163  -0.7576  -1.9324   H         1 1      0.0000
     9 H9       1.1851   0.4077   2.1522   H         1 1      0.0000
    10 H10      3.6328   0.2587   1.9185   H         1 1      0.0000
    11 N11      4.9772  -0.4235  -0.2819   N.pl3     1 1      0.0000
    12 O12      5.6697  -0.1654   0.6902   O.2       1 1      0.0000
    13 O13      5.4334  -0.7520  -1.3659   O.2       1 1      0.0000
    14 CL3     -0.7492  -0.0872   0.2854   C.3       1 1      0.0000
    15 CL1     -1.4523  -1.1591  -0.5950   C.3       1 1      0.0000
    16 H16     -1.4324  -0.8237  -1.6390   H         1 1      0.0000
    17 H17     -0.8644  -2.0840  -0.5473   H         1 1      0.0000
    18 CL      -2.9061  -1.4967  -0.2201   C.3       1 1      0.0000
    19 CL2     -3.7295  -0.2219  -0.2386   C.3       1 1      0.0000
    20 H20     -4.7869  -0.4439  -0.1105   H         1 1      0.0000
    21 H21     -3.4238   0.4464   0.5637   H         1 1      0.0000
    22 H22     -3.6055   0.3036  -1.1832   H         1 1      0.0000
    23 OL2     -1.0562  -0.2776   1.6609   O.3       1 1      0.0000
    24 H24     -2.0262  -0.1463   1.8024   H         1 1      0.0000
    25 N25     -3.4684  -2.4193  -1.1712   N.3       1 1      0.0000
    26 H26     -2.8801  -3.2524  -1.1637   H         1 1      0.0000
    27 C27     -4.8435  -2.8627  -0.9356   C.3       1 1      0.0000
    28 H28     -5.5387  -2.0312  -1.0312   H         1 1      0.0000
    29 H29     -5.1302  -3.6284  -1.6535   H         1 1      0.0000
    30 H30     -4.9486  -3.2790   0.0641   H         1 1      0.0000
    31 OL1     -2.9457  -2.0062   1.1076   O.3       1 1      0.0000
    32 H32     -3.8853  -2.1703   1.3688   H         1 1      0.0000
    33 CL4     -1.1230   1.3454  -0.1450   C.2       1 1      0.0000
    34 C34     -1.1804   3.6217   0.5194   C.3       1 1      0.0000
    35 H35     -0.6161   3.9614  -0.3579   H         1 1      0.0000
    36 H36     -2.2481   3.7305   0.2921   H         1 1      0.0000
    37 OL3     -1.5885   1.6155  -1.2178   O.2       1 1      0.0000
    38 OL4     -0.8665   2.2282   0.8125   O.3       1 1      0.0000
    39 C39     -0.8236   4.4345   1.7037   C.3       1 1      0.0000
    40 H40      0.2364   4.3412   1.9304   H         1 1      0.0000
    41 H41     -1.0417   5.4861   1.5296   H         1 1      0.0000
    42 H42     -1.3867   4.1116   2.5769   H         1 1      0.0000
@<TRIPOS>BOND
     1     1     2   ar
     2     1     6   ar
     3     1    11    1
     4     2     3   ar
     5     2     7    1
     6     3     4   ar
     7     3     8    1
     8     4     5   ar
     9     4    14    1
    10     5     6   ar
    11     5     9    1
    12     6    10    1
    13    11    12    2
    14    11    13    2
    15    14    15    1
    16    14    23    1
    17    14    33    1
    18    15    16    1
    19    15    17    1
    20    15    18    1
    21    18    19    1
    22    18    25    1
    23    18    31    1
    24    19    20    1
    25    19    21    1
    26    19    22    1
    27    23    24    1
    28    25    26    1
    29    25    27    1
    30    27    28    1
    31    27    29    1
    32    27    30    1
    33    31    32    1
    34    33    37    2
    35    33    38    1
    36    34    35    1
    37    34    36    1
    38    34    38    1
    39    34    39    1
    40    39    40    1
    41    39    41    1
    42    39    42    1
@<TRIPOS>SUBSTRUCTURE
     1 1           1 GROUP             0 ****  ****    0  
@<TRIPOS>MOLECULE
Molecule Name_00078
    42    42     1     0     0
SMALL
NO_CHARGES
****
Generated from the CSD

@<TRIPOS>ATOM
     1 C1       3.4551  -0.4027  -0.1154   C.ar      1 1      0.0000
     2 C2       2.6304  -0.7805  -1.1516   C.ar      1 1      0.0000
     3 C3       1.2621  -0.6725  -0.9809   C.ar      1 1      0.0000
     4 C4       0.7145  -0.1973   0.2055   C.ar      1 1      0.0000
     5 C5       1.5841   0.1762   1.2242   C.ar      1 1      0.0000
     6 C6       2.9555   0.0767   1.0750   C.ar      1 1      0.0000
     7 H7       3.0450  -1.1547  -2.0818   H         1 1      0.0000
     8 H8       0.6066  -0.9656  -1.7937   H         1 1      0.0000
     9 H9       1.1828   0.5552   2.1581   H         1 1      0.0000
    10 H10      3.6232   0.3700   1.8784   H         1 1      0.0000
    11 N11      4.9090  -0.5141  -0.2849   N.pl3     1 1      0.0000
    12 O12      5.6268  -0.1751   0.6430   O.2       1 1      0.0000
    13 O13      5.3364  -0.9408  -1.3462   O.2       1 1      0.0000
    14 CL3     -0.7998  -0.0910   0.3909   C.3       1 1      0.0000
    15 CL1     -1.5295  -1.2323  -0.3729   C.3       1 1      0.0000
    16 H16     -1.5349  -0.9910  -1.4427   H         1 1      0.0000
    17 H17     -0.9443  -2.1530  -0.2580   H         1 1      0.0000
    18 CL      -2.9746  -1.5263   0.0669   C.3       1 1      0.0000
    19 CL2     -3.7938  -0.2537  -0.0470   C.3       1 1      0.0000
    20 H20     -4.8496  -0.4587   0.1173   H         1 1      0.0000
    21 H21     -3.4721   0.4792   0.6899   H         1 1      0.0000
    22 H22     -3.6841   0.1884  -1.0350   H         1 1      0.0000
    23 OL2     -1.0731  -0.1563   1.7851   O.3       1 1      0.0000
    24 H24     -2.0384  -0.0053   1.9382   H         1 1      0.0000
    25 N25     -3.5638  -2.5280  -0.7825   N.3       1 1      0.0000
    26 H26     -4.5095  -2.6936  -0.4381   H         1 1      0.0000
    27 C27     -3.6752  -2.2110  -2.2073   C.3       1 1      0.0000
    28 H28     -2.6920  -2.0511  -2.6449   H         1 1      0.0000
    29 H29     -4.1581  -3.0232  -2.7465   H         1 1      0.0000
    30 H30     -4.2636  -1.3080  -2.3567   H         1 1      0.0000
    31 OL1     -2.9826  -1.9131   1.4359   O.3       1 1      0.0000
    32 H32     -3.9139  -2.0774   1.7255   H         1 1      0.0000
    33 CL4     -1.1781   1.3000  -0.1561   C.2       1 1      0.0000
    34 C34     -1.2106   3.6266   0.3049   C.3       1 1      0.0000
    35 H35     -0.6660   3.8838  -0.6120   H         1 1      0.0000
    36 H36     -2.2829   3.7213   0.0938   H         1 1      0.0000
    37 OL3     -1.6679   1.4769  -1.2374   O.2       1 1      0.0000
    38 OL4     -0.8954   2.2627   0.7131   O.3       1 1      0.0000
    39 C39     -0.8225   4.5389   1.4037   C.3       1 1      0.0000
    40 H40      0.2422   4.4597   1.6130   H         1 1      0.0000
    41 H41     -1.0405   5.5723   1.1422   H         1 1      0.0000
    42 H42     -1.3660   4.2981   2.3150   H         1 1      0.0000
@<TRIPOS>BOND
     1     1     2   ar
     2     1     6   ar
     3     1    11    1
     4     2     3   ar
     5     2     7    1
     6     3     4   ar
     7     3     8    1
     8     4     5   ar
     9     4    14    1
    10     5     6   ar
    11     5     9    1
    12     6    10    1
    13    11    12    2
    14    11    13    2
    15    14    15    1
    16    14    23    1
    17    14    33    1
    18    15    16    1
    19    15    17    1
    20    15    18    1
    21    18    19    1
    22    18    25    1
    23    18    31    1
    24    19    20    1
    25    19    21    1
    26    19    22    1
    27    23    24    1
    28    25    26    1
    29    25    27    1
    30    27    28    1
    31    27    29    1
    32    27    30    1
    33    31    32    1
    34    33    37    2
    35    33    38    1
    36    34    35    1
    37    34    36    1
    38    34    38    1
    39    34    39    1
    40    39    40    1
    41    39    41    1
    42    39    42    1
@<TRIPOS>SUBSTRUCTURE
     1 1           1 GROUP             0 ****  ****    0  
@<TRIPOS>MOLECULE
Molecule Name_00079
    42    42     1     0     0
SMALL
NO_CHARGES
****
Generated from the CSD

@<TRIPOS>ATOM
     1 C1       3.4114  -0.4248  -0.1386   C.ar      1 1      0.0000
     2 C2       2.5972  -0.6968  -1.2155   C.ar      1 1      0.0000
     3 C3       1.2298  -0.5557  -1.0630   C.ar      1 1      0.0000
     4 C4       0.6726  -0.1515   0.1451   C.ar      1 1      0.0000
     5 C5       1.5319   0.1160   1.2050   C.ar      1 1      0.0000
     6 C6       2.9022  -0.0183   1.0747   C.ar      1 1      0.0000
     7 H7       3.0192  -1.0147  -2.1631   H         1 1      0.0000
     8 H8       0.5826  -0.7656  -1.9076   H         1 1      0.0000
     9 H9       1.1232   0.4381   2.1569   H         1 1      0.0000
    10 H10      3.5617   0.1920   1.9102   H         1 1      0.0000
    11 N11      4.8642  -0.5722  -0.2885   N.pl3     1 1      0.0000
    12 O12      5.5726  -0.3273   0.6755   O.2       1 1      0.0000
    13 O13      5.3001  -0.9332  -1.3705   O.2       1 1      0.0000
    14 CL3     -0.8412  -0.0082   0.3093   C.3       1 1      0.0000
    15 CL1     -1.5907  -1.0646  -0.5513   C.3       1 1      0.0000
    16 H16     -1.5653  -0.7449  -1.6000   H         1 1      0.0000
    17 H17     -1.0382  -2.0106  -0.4942   H         1 1      0.0000
    18 CL      -3.0537  -1.3412  -0.1623   C.3       1 1      0.0000
    19 CL2     -3.8283  -0.0364  -0.1951   C.3       1 1      0.0000
    20 H20     -4.8934  -0.2168  -0.0662   H         1 1      0.0000
    21 H21     -3.4983   0.6281   0.6007   H         1 1      0.0000
    22 H22     -3.6835   0.4743  -1.1449   H         1 1      0.0000
    23 OL2     -1.1460  -0.1674   1.6893   O.3       1 1      0.0000
    24 H24     -2.1091   0.0037   1.8350   H         1 1      0.0000
    25 N25     -3.6570  -2.2557  -1.0959   N.3       1 1      0.0000
    26 H26     -3.6258  -1.8106  -2.0132   H         1 1      0.0000
    27 C27     -3.0326  -3.5723  -1.2362   C.3       1 1      0.0000
    28 H28     -3.0343  -4.1031  -0.2864   H         1 1      0.0000
    29 H29     -3.5688  -4.1779  -1.9638   H         1 1      0.0000
    30 H30     -2.0012  -3.4765  -1.5691   H         1 1      0.0000
    31 OL1     -3.1037  -1.8289   1.1731   O.3       1 1      0.0000
    32 H32     -4.0458  -1.9825   1.4319   H         1 1      0.0000
    33 CL4     -1.1627   1.4314  -0.1392   C.2       1 1      0.0000
    34 C34     -1.1305   3.7172   0.4938   C.3       1 1      0.0000
    35 H35     -0.5583   4.0232  -0.3907   H         1 1      0.0000
    36 H36     -2.1945   3.8633   0.2699   H         1 1      0.0000
    37 OL3     -1.6231   1.7043  -1.2134   O.2       1 1      0.0000
    38 OL4     -0.8681   2.3169   0.8048   O.3       1 1      0.0000
    39 C39     -0.7372   4.5320   1.6651   C.3       1 1      0.0000
    40 H40      0.3196   4.4017   1.8882   H         1 1      0.0000
    41 H41     -0.9163   5.5886   1.4774   H         1 1      0.0000
    42 H42     -1.3076   4.2426   2.5452   H         1 1      0.0000
@<TRIPOS>BOND
     1     1     2   ar
     2     1     6   ar
     3     1    11    1
     4     2     3   ar
     5     2     7    1
     6     3     4   ar
     7     3     8    1
     8     4     5   ar
     9     4    14    1
    10     5     6   ar
    11     5     9    1
    12     6    10    1
    13    11    12    2
    14    11    13    2
    15    14    15    1
    16    14    23    1
    17    14    33    1
    18    15    16    1
    19    15    17    1
    20    15    18    1
    21    18    19    1
    22    18    25    1
    23    18    31    1
    24    19    20    1
    25    19    21    1
    26    19    22    1
    27    23    24    1
    28    25    26    1
    29    25    27    1
    30    27    28    1
    31    27    29    1
    32    27    30    1
    33    31    32    1
    34    33    37    2
    35    33    38    1
    36    34    35    1
    37    34    36    1
    38    34    38    1
    39    34    39    1
    40    39    40    1
    41    39    41    1
    42    39    42    1
@<TRIPOS>SUBSTRUCTURE
     1 1           1 GROUP             0 ****  ****    0  
@<TRIPOS>MOLECULE
Molecule Name_00080
    42    42     1     0     0
SMALL
NO_CHARGES
****
Generated from the CSD

@<TRIPOS>ATOM
     1 C1       3.5187  -0.2741  -0.2013   C.ar      1 1      0.0000
     2 C2       2.7824   0.6855  -0.8598   C.ar      1 1      0.0000
     3 C3       1.4093   0.6947  -0.6940   C.ar      1 1      0.0000
     4 C4       0.7700  -0.2388   0.1142   C.ar      1 1      0.0000
     5 C5       1.5525  -1.1875   0.7631   C.ar      1 1      0.0000
     6 C6       2.9270  -1.2151   0.6117   C.ar      1 1      0.0000
     7 H7       3.2689   1.4184  -1.4948   H         1 1      0.0000
     8 H8       0.8233   1.4492  -1.2074   H         1 1      0.0000
     9 H9       1.0791  -1.9239   1.4038   H         1 1      0.0000
    10 H10      3.5260  -1.9619   1.1224   H         1 1      0.0000
    11 N11      4.9767  -0.2944  -0.3707   N.pl3     1 1      0.0000
    12 O12      5.6155  -1.1514   0.2198   O.2       1 1      0.0000
    13 O13      5.4863   0.5467  -1.0946   O.2       1 1      0.0000
    14 CL3     -0.7499  -0.2290   0.2841   C.3       1 1      0.0000
    15 CL1     -1.4291  -1.1313  -0.7849   C.3       1 1      0.0000
    16 H16     -1.2270  -0.7119  -1.7779   H         1 1      0.0000
    17 H17     -0.9534  -2.1193  -0.7547   H         1 1      0.0000
    18 CL      -2.9485  -1.3276  -0.6398   C.3       1 1      0.0000
    19 CL2     -3.4649  -2.0914  -1.8453   C.3       1 1      0.0000
    20 H20     -4.5438  -2.2194  -1.7876   H         1 1      0.0000
    21 H21     -3.2355  -1.5594  -2.7662   H         1 1      0.0000
    22 H22     -3.0091  -3.0778  -1.9012   H         1 1      0.0000
    23 OL2     -1.0437  -0.6875   1.5978   O.3       1 1      0.0000
    24 H24     -1.7771  -0.1445   1.9791   H         1 1      0.0000
    25 N25     -3.2454  -2.0879   0.5459   N.3       1 1      0.0000
    26 H26     -2.8732  -1.5641   1.3381   H         1 1      0.0000
    27 C27     -4.6567  -2.3524   0.8311   C.3       1 1      0.0000
    28 H28     -5.1122  -2.9249   0.0258   H         1 1      0.0000
    29 H29     -4.7641  -2.9199   1.7531   H         1 1      0.0000
    30 H30     -5.2093  -1.4215   0.9398   H         1 1      0.0000
    31 OL1     -3.5909  -0.0583  -0.6366   O.3       1 1      0.0000
    32 H32     -4.5703  -0.1858  -0.5857   H         1 1      0.0000
    33 CL4     -1.1643   1.2487   0.1362   C.2       1 1      0.0000
    34 C34     -1.5113   3.2942   1.2860   C.3       1 1      0.0000
    35 H35     -2.3202   3.4644   0.5647   H         1 1      0.0000
    36 H36     -1.8755   3.6007   2.2743   H         1 1      0.0000
    37 OL3     -1.4720   1.7498  -0.9100   O.2       1 1      0.0000
    38 OL4     -1.1370   1.8850   1.3009   O.3       1 1      0.0000
    39 C39     -0.3176   4.0853   0.9123   C.3       1 1      0.0000
    40 H40      0.0446   3.7955  -0.0718   H         1 1      0.0000
    41 H41     -0.5509   5.1477   0.8883   H         1 1      0.0000
    42 H42      0.4869   3.9311   1.6284   H         1 1      0.0000
@<TRIPOS>BOND
     1     1     2   ar
     2     1     6   ar
     3     1    11    1
     4     2     3   ar
     5     2     7    1
     6     3     4   ar
     7     3     8    1
     8     4     5   ar
     9     4    14    1
    10     5     6   ar
    11     5     9    1
    12     6    10    1
    13    11    12    2
    14    11    13    2
    15    14    15    1
    16    14    23    1
    17    14    33    1
    18    15    16    1
    19    15    17    1
    20    15    18    1
    21    18    19    1
    22    18    25    1
    23    18    31    1
    24    19    20    1
    25    19    21    1
    26    19    22    1
    27    23    24    1
    28    25    26    1
    29    25    27    1
    30    27    28    1
    31    27    29    1
    32    27    30    1
    33    31    32    1
    34    33    37    2
    35    33    38    1
    36    34    35    1
    37    34    36    1
    38    34    38    1
    39    34    39    1
    40    39    40    1
    41    39    41    1
    42    39    42    1
@<TRIPOS>SUBSTRUCTURE
     1 1           1 GROUP             0 ****  ****    0  
@<TRIPOS>MOLECULE
Molecule Name_00081
    42    42     1     0     0
SMALL
NO_CHARGES
****
Generated from the CSD

@<TRIPOS>ATOM
     1 C1       3.4261  -0.3588  -0.2117   C.ar      1 1      0.0000
     2 C2       2.7227   0.6267  -0.8680   C.ar      1 1      0.0000
     3 C3       1.3516   0.6866  -0.6963   C.ar      1 1      0.0000
     4 C4       0.6819  -0.2220   0.1156   C.ar      1 1      0.0000
     5 C5       1.4318  -1.1982   0.7621   C.ar      1 1      0.0000
     6 C6       2.8036  -1.2766   0.6048   C.ar      1 1      0.0000
     7 H7       3.2331   1.3407  -1.5060   H         1 1      0.0000
     8 H8       0.7916   1.4617  -1.2080   H         1 1      0.0000
     9 H9       0.9343  -1.9162   1.4056   H         1 1      0.0000
    10 H10      3.3769  -2.0444   1.1137   H         1 1      0.0000
    11 N11      4.8815  -0.4328  -0.3874   N.pl3     1 1      0.0000
    12 O12      5.4909  -1.3122   0.2012   O.2       1 1      0.0000
    13 O13      5.4187   0.3883  -1.1144   O.2       1 1      0.0000
    14 CL3     -0.8358  -0.1561   0.2920   C.3       1 1      0.0000
    15 CL1     -1.5526  -1.0301  -0.7760   C.3       1 1      0.0000
    16 H16     -1.3173  -0.6322  -1.7705   H         1 1      0.0000
    17 H17     -1.1326  -2.0425  -0.7314   H         1 1      0.0000
    18 CL      -3.0820  -1.1409  -0.6458   C.3       1 1      0.0000
    19 CL2     -3.6172  -1.9667  -1.8012   C.3       1 1      0.0000
    20 H20     -4.6984  -2.0678  -1.7347   H         1 1      0.0000
    21 H21     -3.3785  -1.4979  -2.7535   H         1 1      0.0000
    22 H22     -3.1826  -2.9642  -1.7961   H         1 1      0.0000
    23 OL2     -1.1410  -0.6064   1.6060   O.3       1 1      0.0000
    24 H24     -2.1156  -0.5371   1.7592   H         1 1      0.0000
    25 N25     -3.4347  -1.7950   0.5870   N.3       1 1      0.0000
    26 H26     -4.4534  -1.8288   0.6268   H         1 1      0.0000
    27 C27     -2.9521  -3.1641   0.7760   C.3       1 1      0.0000
    28 H28     -1.8650  -3.1976   0.7442   H         1 1      0.0000
    29 H29     -3.2754  -3.5577   1.7374   H         1 1      0.0000
    30 H30     -3.3343  -3.8189  -0.0043   H         1 1      0.0000
    31 OL1     -3.6602   0.1548  -0.7488   O.3       1 1      0.0000
    32 H32     -4.6447   0.0809  -0.6907   H         1 1      0.0000
    33 CL4     -1.1957   1.3363   0.1491   C.2       1 1      0.0000
    34 C34     -1.5122   3.3792   1.3123   C.3       1 1      0.0000
    35 H35     -2.2906   3.5847   0.5672   H         1 1      0.0000
    36 H36     -1.8984   3.6865   2.2920   H         1 1      0.0000
    37 OL3     -1.4517   1.8594  -0.9003   O.2       1 1      0.0000
    38 OL4     -1.1857   1.9580   1.3220   O.3       1 1      0.0000
    39 C39     -0.2810   4.1337   0.9878   C.3       1 1      0.0000
    40 H40      0.1037   3.8431   0.0125   H         1 1      0.0000
    41 H41     -0.4779   5.2036   0.9695   H         1 1      0.0000
    42 H42      0.4938   3.9443   1.7279   H         1 1      0.0000
@<TRIPOS>BOND
     1     1     2   ar
     2     1     6   ar
     3     1    11    1
     4     2     3   ar
     5     2     7    1
     6     3     4   ar
     7     3     8    1
     8     4     5   ar
     9     4    14    1
    10     5     6   ar
    11     5     9    1
    12     6    10    1
    13    11    12    2
    14    11    13    2
    15    14    15    1
    16    14    23    1
    17    14    33    1
    18    15    16    1
    19    15    17    1
    20    15    18    1
    21    18    19    1
    22    18    25    1
    23    18    31    1
    24    19    20    1
    25    19    21    1
    26    19    22    1
    27    23    24    1
    28    25    26    1
    29    25    27    1
    30    27    28    1
    31    27    29    1
    32    27    30    1
    33    31    32    1
    34    33    37    2
    35    33    38    1
    36    34    35    1
    37    34    36    1
    38    34    38    1
    39    34    39    1
    40    39    40    1
    41    39    41    1
    42    39    42    1
@<TRIPOS>SUBSTRUCTURE
     1 1           1 GROUP             0 ****  ****    0  
@<TRIPOS>MOLECULE
Molecule Name_00082
    42    42     1     0     0
SMALL
NO_CHARGES
****
Generated from the CSD

@<TRIPOS>ATOM
     1 C1       3.6263  -0.4219  -0.1774   C.ar      1 1      0.0000
     2 C2       2.9450   0.5574  -0.8653   C.ar      1 1      0.0000
     3 C3       1.5725   0.6382  -0.7149   C.ar      1 1      0.0000
     4 C4       0.8797  -0.2437   0.1070   C.ar      1 1      0.0000
     5 C5       1.6078  -1.2147   0.7856   C.ar      1 1      0.0000
     6 C6       2.9806  -1.3136   0.6500   C.ar      1 1      0.0000
     7 H7       3.4735   1.2507  -1.5113   H         1 1      0.0000
     8 H8       1.0297   1.4087  -1.2516   H         1 1      0.0000
     9 H9       1.0921  -1.9119   1.4375   H         1 1      0.0000
    10 H10      3.5368  -2.0770   1.1839   H         1 1      0.0000
    11 N11      5.0830  -0.5180  -0.3302   N.pl3     1 1      0.0000
    12 O12      5.6727  -1.3916   0.2864   O.2       1 1      0.0000
    13 O13      5.6409   0.2800  -1.0673   O.2       1 1      0.0000
    14 CL3     -0.6394  -0.1550   0.2599   C.3       1 1      0.0000
    15 CL1     -1.3520  -1.0471  -0.7959   C.3       1 1      0.0000
    16 H16     -1.1195  -0.6611  -1.7958   H         1 1      0.0000
    17 H17     -0.9262  -2.0564  -0.7382   H         1 1      0.0000
    18 CL      -2.8806  -1.1648  -0.6631   C.3       1 1      0.0000
    19 CL2     -3.4223  -1.9297  -1.8568   C.3       1 1      0.0000
    20 H20     -4.5067  -2.0030  -1.8081   H         1 1      0.0000
    21 H21     -3.1577  -1.4310  -2.7869   H         1 1      0.0000
    22 H22     -3.0154  -2.9384  -1.8854   H         1 1      0.0000
    23 OL2     -0.9686  -0.5681   1.5803   O.3       1 1      0.0000
    24 H24     -1.6779   0.0191   1.9412   H         1 1      0.0000
    25 N25     -3.2265  -1.8820   0.5360   N.3       1 1      0.0000
    26 H26     -2.8367  -1.3591   1.3202   H         1 1      0.0000
    27 C27     -4.6519  -2.0699   0.8115   C.3       1 1      0.0000
    28 H28     -5.1273  -2.6375   0.0143   H         1 1      0.0000
    29 H29     -4.7964  -2.6100   1.7449   H         1 1      0.0000
    30 H30     -5.1587  -1.1106   0.8932   H         1 1      0.0000
    31 OL1     -3.4592   0.1344  -0.6956   O.3       1 1      0.0000
    32 H32     -4.4442   0.0567  -0.6526   H         1 1      0.0000
    33 CL4     -0.9786   1.3375   0.0743   C.2       1 1      0.0000
    34 C34     -1.2351   3.4236   1.1738   C.3       1 1      0.0000
    35 H35     -0.7643   3.9424   2.0179   H         1 1      0.0000
    36 H36     -0.8400   3.8632   0.2496   H         1 1      0.0000
    37 OL3     -1.2507   1.8290  -0.9863   O.2       1 1      0.0000
    38 OL4     -0.9312   1.9983   1.2246   O.3       1 1      0.0000
    39 C39     -2.7053   3.5846   1.2295   C.3       1 1      0.0000
    40 H40     -3.1051   3.1608   2.1484   H         1 1      0.0000
    41 H41     -2.9796   4.6369   1.1942   H         1 1      0.0000
    42 H42     -3.1804   3.0821   0.3897   H         1 1      0.0000
@<TRIPOS>BOND
     1     1     2   ar
     2     1     6   ar
     3     1    11    1
     4     2     3   ar
     5     2     7    1
     6     3     4   ar
     7     3     8    1
     8     4     5   ar
     9     4    14    1
    10     5     6   ar
    11     5     9    1
    12     6    10    1
    13    11    12    2
    14    11    13    2
    15    14    15    1
    16    14    23    1
    17    14    33    1
    18    15    16    1
    19    15    17    1
    20    15    18    1
    21    18    19    1
    22    18    25    1
    23    18    31    1
    24    19    20    1
    25    19    21    1
    26    19    22    1
    27    23    24    1
    28    25    26    1
    29    25    27    1
    30    27    28    1
    31    27    29    1
    32    27    30    1
    33    31    32    1
    34    33    37    2
    35    33    38    1
    36    34    35    1
    37    34    36    1
    38    34    38    1
    39    34    39    1
    40    39    40    1
    41    39    41    1
    42    39    42    1
@<TRIPOS>SUBSTRUCTURE
     1 1           1 GROUP             0 ****  ****    0  
@<TRIPOS>MOLECULE
Molecule Name_00083
    42    42     1     0     0
SMALL
NO_CHARGES
****
Generated from the CSD

@<TRIPOS>ATOM
     1 C1       3.5306  -0.5072  -0.1867   C.ar      1 1      0.0000
     2 C2       2.8842   0.5020  -0.8651   C.ar      1 1      0.0000
     3 C3       1.5163   0.6334  -0.7087   C.ar      1 1      0.0000
     4 C4       0.7938  -0.2276   0.1098   C.ar      1 1      0.0000
     5 C5       1.4871  -1.2301   0.7788   C.ar      1 1      0.0000
     6 C6       2.8548  -1.3798   0.6371   C.ar      1 1      0.0000
     7 H7       3.4361   1.1793  -1.5084   H         1 1      0.0000
     8 H8       1.0010   1.4276  -1.2379   H         1 1      0.0000
     9 H9       0.9479  -1.9120   1.4278   H         1 1      0.0000
    10 H10      3.3837  -2.1674   1.1635   H         1 1      0.0000
    11 N11      4.9821  -0.6571  -0.3459   N.pl3     1 1      0.0000
    12 O12      5.5407  -1.5567   0.2623   O.2       1 1      0.0000
    13 O13      5.5670   0.1245  -1.0796   O.2       1 1      0.0000
    14 CL3     -0.7203  -0.0828   0.2693   C.3       1 1      0.0000
    15 CL1     -1.4699  -0.9362  -0.7928   C.3       1 1      0.0000
    16 H16     -1.2052  -0.5662  -1.7907   H         1 1      0.0000
    17 H17     -1.1019  -1.9676  -0.7286   H         1 1      0.0000
    18 CL      -3.0041  -0.9680  -0.6770   C.3       1 1      0.0000
    19 CL2     -3.5690  -1.7838  -1.8253   C.3       1 1      0.0000
    20 H20     -4.6546  -1.8294  -1.7687   H         1 1      0.0000
    21 H21     -3.2978  -1.3425  -2.7821   H         1 1      0.0000
    22 H22     -3.1854  -2.8017  -1.8006   H         1 1      0.0000
    23 OL2     -1.0605  -0.4966   1.5867   O.3       1 1      0.0000
    24 H24     -2.0319  -0.3760   1.7285   H         1 1      0.0000
    25 N25     -3.4013  -1.5842   0.5618   N.3       1 1      0.0000
    26 H26     -4.4207  -1.5661   0.5914   H         1 1      0.0000
    27 C27     -2.9901  -2.9727   0.7765   C.3       1 1      0.0000
    28 H28     -1.9059  -3.0613   0.7566   H         1 1      0.0000
    29 H29     -3.3422  -3.3345   1.7402   H         1 1      0.0000
    30 H30     -3.3973  -3.6196   0.0022   H         1 1      0.0000
    31 OL1     -3.5153   0.3534  -0.8056   O.3       1 1      0.0000
    32 H32     -4.5028   0.3300  -0.7567   H         1 1      0.0000
    33 CL4     -1.0031   1.4234   0.1001   C.2       1 1      0.0000
    34 C34     -1.2275   3.4975   1.2289   C.3       1 1      0.0000
    35 H35     -0.7688   3.9852   2.0979   H         1 1      0.0000
    36 H36     -0.7866   3.9395   0.3268   H         1 1      0.0000
    37 OL3     -1.2223   1.9423  -0.9597   O.2       1 1      0.0000
    38 OL4     -0.9732   2.0621   1.2634   O.3       1 1      0.0000
    39 C39     -2.6925   3.7073   1.2382   C.3       1 1      0.0000
    40 H40     -3.1375   3.2814   2.1351   H         1 1      0.0000
    41 H41     -2.9303   4.7687   1.2132   H         1 1      0.0000
    42 H42     -3.1552   3.2359   0.3736   H         1 1      0.0000
@<TRIPOS>BOND
     1     1     2   ar
     2     1     6   ar
     3     1    11    1
     4     2     3   ar
     5     2     7    1
     6     3     4   ar
     7     3     8    1
     8     4     5   ar
     9     4    14    1
    10     5     6   ar
    11     5     9    1
    12     6    10    1
    13    11    12    2
    14    11    13    2
    15    14    15    1
    16    14    23    1
    17    14    33    1
    18    15    16    1
    19    15    17    1
    20    15    18    1
    21    18    19    1
    22    18    25    1
    23    18    31    1
    24    19    20    1
    25    19    21    1
    26    19    22    1
    27    23    24    1
    28    25    26    1
    29    25    27    1
    30    27    28    1
    31    27    29    1
    32    27    30    1
    33    31    32    1
    34    33    37    2
    35    33    38    1
    36    34    35    1
    37    34    36    1
    38    34    38    1
    39    34    39    1
    40    39    40    1
    41    39    41    1
    42    39    42    1
@<TRIPOS>SUBSTRUCTURE
     1 1           1 GROUP             0 ****  ****    0  
@<TRIPOS>MOLECULE
Molecule Name_00084
    42    42     1     0     0
SMALL
NO_CHARGES
****
Generated from the CSD

@<TRIPOS>ATOM
     1 C1       3.5491  -0.2697  -0.1843   C.ar      1 1      0.0000
     2 C2       2.7675   0.6094  -0.9005   C.ar      1 1      0.0000
     3 C3       1.3976   0.5808  -0.7122   C.ar      1 1      0.0000
     4 C4       0.8058  -0.3114   0.1750   C.ar      1 1      0.0000
     5 C5       1.6330  -1.1787   0.8799   C.ar      1 1      0.0000
     6 C6       3.0052  -1.1673   0.7074   C.ar      1 1      0.0000
     7 H7       3.2167   1.3094  -1.5972   H         1 1      0.0000
     8 H8       0.7761   1.2721  -1.2708   H         1 1      0.0000
     9 H9       1.1971  -1.8813   1.5823   H         1 1      0.0000
    10 H10      3.6394  -1.8506   1.2625   H         1 1      0.0000
    11 N11      5.0042  -0.2492  -0.3768   N.pl3     1 1      0.0000
    12 O12      5.6835  -1.0348   0.2655   O.2       1 1      0.0000
    13 O13      5.4711   0.5526  -1.1707   O.2       1 1      0.0000
    14 CL3     -0.7107  -0.3446   0.3698   C.3       1 1      0.0000
    15 CL1     -1.3709  -1.3472  -0.6188   C.3       1 1      0.0000
    16 H16     -1.1818  -1.0056  -1.6436   H         1 1      0.0000
    17 H17     -0.8714  -2.3178  -0.5103   H         1 1      0.0000
    18 CL      -2.8847  -1.5672  -0.4509   C.3       1 1      0.0000
    19 CL2     -3.1414  -2.2305   0.8898   C.3       1 1      0.0000
    20 H20     -3.9518  -2.9524   0.8141   H         1 1      0.0000
    21 H21     -2.2530  -2.7535   1.2377   H         1 1      0.0000
    22 H22     -3.4149  -1.4913   1.6398   H         1 1      0.0000
    23 OL2     -0.9680  -0.7158   1.7183   O.3       1 1      0.0000
    24 H24     -1.8370  -0.3388   2.0028   H         1 1      0.0000
    25 N25     -3.5812  -0.3078  -0.4798   N.3       1 1      0.0000
    26 H26     -3.3744   0.1278  -1.3786   H         1 1      0.0000
    27 C27     -5.0386  -0.3499  -0.3484   C.3       1 1      0.0000
    28 H28     -5.3277  -0.8060   0.5962   H         1 1      0.0000
    29 H29     -5.4581   0.6534  -0.3827   H         1 1      0.0000
    30 H30     -5.4819  -0.9304  -1.1547   H         1 1      0.0000
    31 OL1     -3.3475  -2.4581  -1.4588   O.3       1 1      0.0000
    32 H32     -4.3102  -2.6383  -1.3214   H         1 1      0.0000
    33 CL4     -1.1826   1.1021   0.1217   C.2       1 1      0.0000
    34 C34     -1.6287   3.2011   1.1325   C.3       1 1      0.0000
    35 H35     -2.4333   3.2910   0.3923   H         1 1      0.0000
    36 H36     -2.0192   3.5550   2.0947   H         1 1      0.0000
    37 OL3     -1.4952   1.5219  -0.9583   O.2       1 1      0.0000
    38 OL4     -1.1978   1.8124   1.2431   O.3       1 1      0.0000
    39 C39     -0.4627   4.0152   0.7226   C.3       1 1      0.0000
    40 H40     -0.0750   3.6781  -0.2365   H         1 1      0.0000
    41 H41     -0.7386   5.0634   0.6271   H         1 1      0.0000
    42 H42      0.3369   3.9407   1.4566   H         1 1      0.0000
@<TRIPOS>BOND
     1     1     2   ar
     2     1     6   ar
     3     1    11    1
     4     2     3   ar
     5     2     7    1
     6     3     4   ar
     7     3     8    1
     8     4     5   ar
     9     4    14    1
    10     5     6   ar
    11     5     9    1
    12     6    10    1
    13    11    12    2
    14    11    13    2
    15    14    15    1
    16    14    23    1
    17    14    33    1
    18    15    16    1
    19    15    17    1
    20    15    18    1
    21    18    19    1
    22    18    25    1
    23    18    31    1
    24    19    20    1
    25    19    21    1
    26    19    22    1
    27    23    24    1
    28    25    26    1
    29    25    27    1
    30    27    28    1
    31    27    29    1
    32    27    30    1
    33    31    32    1
    34    33    37    2
    35    33    38    1
    36    34    35    1
    37    34    36    1
    38    34    38    1
    39    34    39    1
    40    39    40    1
    41    39    41    1
    42    39    42    1
@<TRIPOS>SUBSTRUCTURE
     1 1           1 GROUP             0 ****  ****    0  
@<TRIPOS>MOLECULE
Molecule Name_00085
    42    42     1     0     0
SMALL
NO_CHARGES
****
Generated from the CSD

@<TRIPOS>ATOM
     1 C1       3.6549  -0.4239  -0.1564   C.ar      1 1      0.0000
     2 C2       2.9271   0.4715  -0.9082   C.ar      1 1      0.0000
     3 C3       1.5557   0.5191  -0.7352   C.ar      1 1      0.0000
     4 C4       0.9097  -0.3135   0.1718   C.ar      1 1      0.0000
     5 C5       1.6837  -1.1998   0.9125   C.ar      1 1      0.0000
     6 C6       3.0564  -1.2643   0.7558   C.ar      1 1      0.0000
     7 H7       3.4189   1.1255  -1.6207   H         1 1      0.0000
     8 H8       0.9765   1.2238  -1.3219   H         1 1      0.0000
     9 H9       1.2050  -1.8569   1.6309   H         1 1      0.0000
    10 H10      3.6487  -1.9616   1.3389   H         1 1      0.0000
    11 N11      5.1110  -0.4842  -0.3324   N.pl3     1 1      0.0000
    12 O12      5.7422  -1.2833   0.3415   O.2       1 1      0.0000
    13 O13      5.6268   0.2675  -1.1449   O.2       1 1      0.0000
    14 CL3     -0.6084  -0.2626   0.3497   C.3       1 1      0.0000
    15 CL1     -1.3096  -1.2603  -0.6154   C.3       1 1      0.0000
    16 H16     -1.0927  -0.9608  -1.6479   H         1 1      0.0000
    17 H17     -0.8620  -2.2514  -0.4715   H         1 1      0.0000
    18 CL      -2.8343  -1.3969  -0.4586   C.3       1 1      0.0000
    19 CL2     -3.1385  -2.0042   0.8986   C.3       1 1      0.0000
    20 H20     -3.9844  -2.6855   0.8355   H         1 1      0.0000
    21 H21     -2.2820  -2.5610   1.2727   H         1 1      0.0000
    22 H22     -3.3811  -1.2289   1.6224   H         1 1      0.0000
    23 OL2     -0.8983  -0.5780   1.7058   O.3       1 1      0.0000
    24 H24     -1.7494  -0.1482   1.9686   H         1 1      0.0000
    25 N25     -3.4645  -0.1049  -0.5341   N.3       1 1      0.0000
    26 H26     -3.2263   0.2914  -1.4433   H         1 1      0.0000
    27 C27     -4.9233  -0.0680  -0.4185   C.3       1 1      0.0000
    28 H28     -5.2452  -0.4790   0.5360   H         1 1      0.0000
    29 H29     -5.2900   0.9540  -0.4884   H         1 1      0.0000
    30 H30     -5.3879  -0.6497  -1.2119   H         1 1      0.0000
    31 OL1     -3.3323  -2.2938  -1.4442   O.3       1 1      0.0000
    32 H32     -4.3044  -2.4198  -1.3127   H         1 1      0.0000
    33 CL4     -1.0023   1.1980   0.0521   C.2       1 1      0.0000
    34 C34     -1.3496   3.3475   0.9931   C.3       1 1      0.0000
    35 H35     -0.9077   3.9446   1.8004   H         1 1      0.0000
    36 H36     -0.9619   3.7332   0.0421   H         1 1      0.0000
    37 OL3     -1.2819   1.5995  -1.0438   O.2       1 1      0.0000
    38 OL4     -0.9921   1.9426   1.1510   O.3       1 1      0.0000
    39 C39     -2.8253   3.4550   1.0257   C.3       1 1      0.0000
    40 H40     -3.2183   3.0845   1.9702   H         1 1      0.0000
    41 H41     -3.1392   4.4904   0.9109   H         1 1      0.0000
    42 H42     -3.2722   2.8743   0.2215   H         1 1      0.0000
@<TRIPOS>BOND
     1     1     2   ar
     2     1     6   ar
     3     1    11    1
     4     2     3   ar
     5     2     7    1
     6     3     4   ar
     7     3     8    1
     8     4     5   ar
     9     4    14    1
    10     5     6   ar
    11     5     9    1
    12     6    10    1
    13    11    12    2
    14    11    13    2
    15    14    15    1
    16    14    23    1
    17    14    33    1
    18    15    16    1
    19    15    17    1
    20    15    18    1
    21    18    19    1
    22    18    25    1
    23    18    31    1
    24    19    20    1
    25    19    21    1
    26    19    22    1
    27    23    24    1
    28    25    26    1
    29    25    27    1
    30    27    28    1
    31    27    29    1
    32    27    30    1
    33    31    32    1
    34    33    37    2
    35    33    38    1
    36    34    35    1
    37    34    36    1
    38    34    38    1
    39    34    39    1
    40    39    40    1
    41    39    41    1
    42    39    42    1
@<TRIPOS>SUBSTRUCTURE
     1 1           1 GROUP             0 ****  ****    0  
@<TRIPOS>MOLECULE
Molecule Name_00086
    42    42     1     0     0
SMALL
NO_CHARGES
****
Generated from the CSD

@<TRIPOS>ATOM
     1 C1       3.6741  -0.3758  -0.2076   C.ar      1 1      0.0000
     2 C2       2.8749  -0.7233  -1.2740   C.ar      1 1      0.0000
     3 C3       1.5050  -0.7646  -1.0879   C.ar      1 1      0.0000
     4 C4       0.9309  -0.4671   0.1430   C.ar      1 1      0.0000
     5 C5       1.7749  -0.1177   1.1913   C.ar      1 1      0.0000
     6 C6       3.1474  -0.0699   1.0276   C.ar      1 1      0.0000
     7 H7       3.3105  -0.9596  -2.2392   H         1 1      0.0000
     8 H8       0.8693  -1.0349  -1.9240   H         1 1      0.0000
     9 H9       1.3522   0.1243   2.1607   H         1 1      0.0000
    10 H10      3.7951   0.2027   1.8543   H         1 1      0.0000
    11 N11      5.1295  -0.3298  -0.3930   N.pl3     1 1      0.0000
    12 O12      5.8245  -0.0199   0.5621   O.2       1 1      0.0000
    13 O13      5.5810  -0.6035  -1.4941   O.2       1 1      0.0000
    14 CL3     -0.5841  -0.5254   0.3440   C.3       1 1      0.0000
    15 CL1     -1.3158  -0.6590  -1.0216   C.3       1 1      0.0000
    16 H16     -1.0928   0.2274  -1.6275   H         1 1      0.0000
    17 H17     -0.8967  -1.5215  -1.5544   H         1 1      0.0000
    18 CL      -2.8436  -0.8328  -0.9578   C.3       1 1      0.0000
    19 CL2     -3.1630  -2.1348  -0.2463   C.3       1 1      0.0000
    20 H20     -4.1124  -2.5395  -0.5905   H         1 1      0.0000
    21 H21     -2.3900  -2.8769  -0.4347   H         1 1      0.0000
    22 H22     -3.2300  -1.9805   0.8286   H         1 1      0.0000
    23 OL2     -0.8689  -1.6366   1.1846   O.3       1 1      0.0000
    24 H24     -1.5320  -1.3702   1.8682   H         1 1      0.0000
    25 N25     -3.4416   0.2501  -0.2219   N.3       1 1      0.0000
    26 H26     -3.2190   1.1106  -0.7223   H         1 1      0.0000
    27 C27     -4.8952   0.2164  -0.0515   C.3       1 1      0.0000
    28 H28     -5.2003  -0.6813   0.4820   H         1 1      0.0000
    29 H29     -5.2372   1.0801   0.5149   H         1 1      0.0000
    30 H30     -5.3970   0.2239  -1.0169   H         1 1      0.0000
    31 OL1     -3.3633  -0.9341  -2.2782   O.3       1 1      0.0000
    32 H32     -4.3416  -1.0731  -2.2366   H         1 1      0.0000
    33 CL4     -0.9478   0.7880   1.0648   C.2       1 1      0.0000
    34 C34     -1.5340   3.0678   0.7719   C.3       1 1      0.0000
    35 H35     -0.9720   3.2432   1.6976   H         1 1      0.0000
    36 H36     -1.2802   3.8717   0.0700   H         1 1      0.0000
    37 OL3     -1.0102   0.8943   2.2587   O.2       1 1      0.0000
    38 OL4     -1.1795   1.7721   0.2045   O.3       1 1      0.0000
    39 C39     -2.9881   3.0690   1.0478   C.3       1 1      0.0000
    40 H40     -3.2482   2.2790   1.7492   H         1 1      0.0000
    41 H41     -3.2984   4.0193   1.4771   H         1 1      0.0000
    42 H42     -3.5544   2.9096   0.1325   H         1 1      0.0000
@<TRIPOS>BOND
     1     1     2   ar
     2     1     6   ar
     3     1    11    1
     4     2     3   ar
     5     2     7    1
     6     3     4   ar
     7     3     8    1
     8     4     5   ar
     9     4    14    1
    10     5     6   ar
    11     5     9    1
    12     6    10    1
    13    11    12    2
    14    11    13    2
    15    14    15    1
    16    14    23    1
    17    14    33    1
    18    15    16    1
    19    15    17    1
    20    15    18    1
    21    18    19    1
    22    18    25    1
    23    18    31    1
    24    19    20    1
    25    19    21    1
    26    19    22    1
    27    23    24    1
    28    25    26    1
    29    25    27    1
    30    27    28    1
    31    27    29    1
    32    27    30    1
    33    31    32    1
    34    33    37    2
    35    33    38    1
    36    34    35    1
    37    34    36    1
    38    34    38    1
    39    34    39    1
    40    39    40    1
    41    39    41    1
    42    39    42    1
@<TRIPOS>SUBSTRUCTURE
     1 1           1 GROUP             0 ****  ****    0  
@<TRIPOS>MOLECULE
Molecule Name_00087
    42    42     1     0     0
SMALL
NO_CHARGES
****
Generated from the CSD

@<TRIPOS>ATOM
     1 C1       3.5685  -0.3708  -0.2570   C.ar      1 1      0.0000
     2 C2       2.7814  -0.4398  -1.3850   C.ar      1 1      0.0000
     3 C3       1.4067  -0.4247  -1.2342   C.ar      1 1      0.0000
     4 C4       0.8157  -0.3447   0.0219   C.ar      1 1      0.0000
     5 C5       1.6481  -0.2733   1.1333   C.ar      1 1      0.0000
     6 C6       3.0252  -0.2867   1.0057   C.ar      1 1      0.0000
     7 H7       3.2301  -0.5045  -2.3708   H         1 1      0.0000
     8 H8       0.7807  -0.4760  -2.1183   H         1 1      0.0000
     9 H9       1.2125  -0.2048   2.1245   H         1 1      0.0000
    10 H10      3.6636  -0.2321   1.8813   H         1 1      0.0000
    11 N11      5.0288  -0.3873  -0.4048   N.pl3     1 1      0.0000
    12 O12      5.7129  -0.3254   0.6048   O.2       1 1      0.0000
    13 O13      5.4951  -0.4620  -1.5310   O.2       1 1      0.0000
    14 CL3     -0.7053  -0.3395   0.1815   C.3       1 1      0.0000
    15 CL1     -1.3764  -1.2202  -0.9105   C.3       1 1      0.0000
    16 H16     -1.1394  -0.7996  -1.8952   H         1 1      0.0000
    17 H17     -0.9237  -2.2187  -0.8743   H         1 1      0.0000
    18 CL      -2.9031  -1.3834  -0.8058   C.3       1 1      0.0000
    19 CL2     -3.2237  -2.2807   0.3755   C.3       1 1      0.0000
    20 H20     -4.2870  -2.5086   0.4092   H         1 1      0.0000
    21 H21     -2.6780  -3.2194   0.3061   H         1 1      0.0000
    22 H22     -2.9506  -1.7983   1.3116   H         1 1      0.0000
    23 OL2     -1.0078  -0.8251   1.4835   O.3       1 1      0.0000
    24 H24     -1.8035  -0.3535   1.8335   H         1 1      0.0000
    25 N25     -3.5312  -0.1056  -0.5943   N.3       1 1      0.0000
    26 H26     -4.1467   0.0605  -1.3904   H         1 1      0.0000
    27 C27     -4.3428   0.0452   0.6147   C.3       1 1      0.0000
    28 H28     -3.7257  -0.0407   1.5067   H         1 1      0.0000
    29 H29     -4.8310   1.0174   0.6327   H         1 1      0.0000
    30 H30     -5.1131  -0.7217   0.6603   H         1 1      0.0000
    31 OL1     -3.3902  -2.0325  -1.9742   O.3       1 1      0.0000
    32 H32     -4.3678  -2.1603  -1.8958   H         1 1      0.0000
    33 CL4     -1.1201   1.1406   0.0611   C.2       1 1      0.0000
    34 C34     -1.5338   3.1464   1.2577   C.3       1 1      0.0000
    35 H35     -0.8369   3.7334   0.6468   H         1 1      0.0000
    36 H36     -2.5373   3.2718   0.8327   H         1 1      0.0000
    37 OL3     -1.3790   1.6742  -0.9823   O.2       1 1      0.0000
    38 OL4     -1.1530   1.7389   1.2456   O.3       1 1      0.0000
    39 C39     -1.5090   3.6196   2.6598   C.3       1 1      0.0000
    40 H40     -0.5143   3.5091   3.0866   H         1 1      0.0000
    41 H41     -1.7878   4.6697   2.7175   H         1 1      0.0000
    42 H42     -2.2055   3.0499   3.2715   H         1 1      0.0000
@<TRIPOS>BOND
     1     1     2   ar
     2     1     6   ar
     3     1    11    1
     4     2     3   ar
     5     2     7    1
     6     3     4   ar
     7     3     8    1
     8     4     5   ar
     9     4    14    1
    10     5     6   ar
    11     5     9    1
    12     6    10    1
    13    11    12    2
    14    11    13    2
    15    14    15    1
    16    14    23    1
    17    14    33    1
    18    15    16    1
    19    15    17    1
    20    15    18    1
    21    18    19    1
    22    18    25    1
    23    18    31    1
    24    19    20    1
    25    19    21    1
    26    19    22    1
    27    23    24    1
    28    25    26    1
    29    25    27    1
    30    27    28    1
    31    27    29    1
    32    27    30    1
    33    31    32    1
    34    33    37    2
    35    33    38    1
    36    34    35    1
    37    34    36    1
    38    34    38    1
    39    34    39    1
    40    39    40    1
    41    39    41    1
    42    39    42    1
@<TRIPOS>SUBSTRUCTURE
     1 1           1 GROUP             0 ****  ****    0  
@<TRIPOS>MOLECULE
Molecule Name_00088
    42    42     1     0     0
SMALL
NO_CHARGES
****
Generated from the CSD

@<TRIPOS>ATOM
     1 C1       2.8874  -0.6025  -0.2640   C.ar      1 1      0.0000
     2 C2       2.1033  -0.3015  -1.3554   C.ar      1 1      0.0000
     3 C3       0.7846   0.0579  -1.1435   C.ar      1 1      0.0000
     4 C4       0.2457   0.1165   0.1369   C.ar      1 1      0.0000
     5 C5       1.0740  -0.1919   1.2103   C.ar      1 1      0.0000
     6 C6       2.3955  -0.5537   1.0214   C.ar      1 1      0.0000
     7 H7       2.5112  -0.3453  -2.3599   H         1 1      0.0000
     8 H8       0.1620   0.2989  -1.9982   H         1 1      0.0000
     9 H9       0.6798  -0.1487   2.2200   H         1 1      0.0000
    10 H10      3.0309  -0.7936   1.8675   H         1 1      0.0000
    11 N11      4.2881  -0.9864  -0.4769   N.pl3     1 1      0.0000
    12 O12      4.9703  -1.2503   0.5009   O.2       1 1      0.0000
    13 O13      4.7093  -1.0249  -1.6225   O.2       1 1      0.0000
    14 CL3     -1.2164   0.5042   0.3627   C.3       1 1      0.0000
    15 CL1     -2.1231  -0.0963  -0.7489   C.3       1 1      0.0000
    16 H16     -3.0628   0.4683  -0.7784   H         1 1      0.0000
    17 H17     -1.6298   0.0572  -1.7166   H         1 1      0.0000
    18 CL      -2.4585  -1.5923  -0.6153   C.3       1 1      0.0000
    19 CL2     -3.3565  -2.0017  -1.7683   C.3       1 1      0.0000
    20 H20     -3.6292  -3.0521  -1.6906   H         1 1      0.0000
    21 H21     -4.2716  -1.4133  -1.7722   H         1 1      0.0000
    22 H22     -2.8532  -1.8518  -2.7212   H         1 1      0.0000
    23 OL2     -1.6001   0.0259   1.6458   O.3       1 1      0.0000
    24 H24     -2.5325   0.2978   1.8326   H         1 1      0.0000
    25 N25     -1.2566  -2.3827  -0.6676   N.3       1 1      0.0000
    26 H26     -0.6833  -2.1084   0.1302   H         1 1      0.0000
    27 C27     -1.4130  -3.8369  -0.6039   C.3       1 1      0.0000
    28 H28     -2.0184  -4.1964  -1.4334   H         1 1      0.0000
    29 H29     -0.4450  -4.3313  -0.6517   H         1 1      0.0000
    30 H30     -1.8991  -4.1323   0.3235   H         1 1      0.0000
    31 OL1     -3.1889  -1.8075   0.5864   O.3       1 1      0.0000
    32 H32     -3.4278  -2.7644   0.6589   H         1 1      0.0000
    33 CL4     -1.2335   2.0459   0.3477   C.2       1 1      0.0000
    34 C34     -1.1116   4.0038   1.6812   C.3       1 1      0.0000
    35 H35     -1.8104   4.4388   0.9560   H         1 1      0.0000
    36 H36     -1.4391   4.3067   2.6834   H         1 1      0.0000
    37 OL3     -1.3466   2.6983  -0.6532   O.2       1 1      0.0000
    38 OL4     -1.1087   2.5499   1.5694   O.3       1 1      0.0000
    39 C39      0.2623   4.4896   1.4230   C.3       1 1      0.0000
    40 H40      0.5919   4.2029   0.4265   H         1 1      0.0000
    41 H41      0.3080   5.5742   1.4960   H         1 1      0.0000
    42 H42      0.9612   4.0716   2.1445   H         1 1      0.0000
@<TRIPOS>BOND
     1     1     2   ar
     2     1     6   ar
     3     1    11    1
     4     2     3   ar
     5     2     7    1
     6     3     4   ar
     7     3     8    1
     8     4     5   ar
     9     4    14    1
    10     5     6   ar
    11     5     9    1
    12     6    10    1
    13    11    12    2
    14    11    13    2
    15    14    15    1
    16    14    23    1
    17    14    33    1
    18    15    16    1
    19    15    17    1
    20    15    18    1
    21    18    19    1
    22    18    25    1
    23    18    31    1
    24    19    20    1
    25    19    21    1
    26    19    22    1
    27    23    24    1
    28    25    26    1
    29    25    27    1
    30    27    28    1
    31    27    29    1
    32    27    30    1
    33    31    32    1
    34    33    37    2
    35    33    38    1
    36    34    35    1
    37    34    36    1
    38    34    38    1
    39    34    39    1
    40    39    40    1
    41    39    41    1
    42    39    42    1
@<TRIPOS>SUBSTRUCTURE
     1 1           1 GROUP             0 ****  ****    0  
@<TRIPOS>MOLECULE
Molecule Name_00089
    42    42     1     0     0
SMALL
NO_CHARGES
****
Generated from the CSD

@<TRIPOS>ATOM
     1 C1       2.9801  -0.7662  -0.2252   C.ar      1 1      0.0000
     2 C2       2.2302  -0.4364  -1.3322   C.ar      1 1      0.0000
     3 C3       0.9307  -0.0014  -1.1451   C.ar      1 1      0.0000
     4 C4       0.3771   0.1040   0.1260   C.ar      1 1      0.0000
     5 C5       1.1711  -0.2359   1.2157   C.ar      1 1      0.0000
     6 C6       2.4729  -0.6731   1.0518   C.ar      1 1      0.0000
     7 H7       2.6498  -0.5161  -2.3297   H         1 1      0.0000
     8 H8       0.3352   0.2626  -2.0122   H         1 1      0.0000
     9 H9       0.7650  -0.1575   2.2187   H         1 1      0.0000
    10 H10      3.0814  -0.9368   1.9105   H         1 1      0.0000
    11 N11      4.3602  -1.2303  -0.4118   N.pl3     1 1      0.0000
    12 O12      5.0122  -1.5188   0.5796   O.2       1 1      0.0000
    13 O13      4.7954  -1.3072  -1.5502   O.2       1 1      0.0000
    14 CL3     -1.0641   0.5755   0.3244   C.3       1 1      0.0000
    15 CL1     -1.9866   0.0117  -0.7934   C.3       1 1      0.0000
    16 H16     -2.8927   0.6274  -0.8444   H         1 1      0.0000
    17 H17     -1.4713   0.1248  -1.7552   H         1 1      0.0000
    18 CL      -2.4069  -1.4614  -0.6466   C.3       1 1      0.0000
    19 CL2     -3.3093  -1.8353  -1.8082   C.3       1 1      0.0000
    20 H20     -3.6414  -2.8678  -1.7217   H         1 1      0.0000
    21 H21     -4.1900  -1.1970  -1.8334   H         1 1      0.0000
    22 H22     -2.7845  -1.7262  -2.7549   H         1 1      0.0000
    23 OL2     -1.4928   0.1362   1.6073   O.3       1 1      0.0000
    24 H24     -2.4112   0.4620   1.7764   H         1 1      0.0000
    25 N25     -1.2505  -2.3181  -0.6706   N.3       1 1      0.0000
    26 H26     -0.6745  -2.0656   0.1324   H         1 1      0.0000
    27 C27     -1.4887  -3.7604  -0.5914   C.3       1 1      0.0000
    28 H28     -2.1010  -4.0965  -1.4256   H         1 1      0.0000
    29 H29     -0.5492  -4.3085  -0.6181   H         1 1      0.0000
    30 H30     -2.0041  -4.0160   0.3320   H         1 1      0.0000
    31 OL1     -3.1658  -1.6197   0.5462   O.3       1 1      0.0000
    32 H32     -3.4588  -2.5608   0.6269   H         1 1      0.0000
    33 CL4     -0.9949   2.1153   0.2902   C.2       1 1      0.0000
    34 C34     -0.7835   4.0808   1.6011   C.3       1 1      0.0000
    35 H35     -0.2556   4.3748   2.5167   H         1 1      0.0000
    36 H36     -0.2250   4.4872   0.7488   H         1 1      0.0000
    37 OL3     -1.0566   2.7598  -0.7204   O.2       1 1      0.0000
    38 OL4     -0.8601   2.6277   1.5073   O.3       1 1      0.0000
    39 C39     -2.1632   4.6164   1.6113   C.3       1 1      0.0000
    40 H40     -2.7218   4.2269   2.4598   H         1 1      0.0000
    41 H41     -2.1549   5.7021   1.6805   H         1 1      0.0000
    42 H42     -2.6914   4.3387   0.7016   H         1 1      0.0000
@<TRIPOS>BOND
     1     1     2   ar
     2     1     6   ar
     3     1    11    1
     4     2     3   ar
     5     2     7    1
     6     3     4   ar
     7     3     8    1
     8     4     5   ar
     9     4    14    1
    10     5     6   ar
    11     5     9    1
    12     6    10    1
    13    11    12    2
    14    11    13    2
    15    14    15    1
    16    14    23    1
    17    14    33    1
    18    15    16    1
    19    15    17    1
    20    15    18    1
    21    18    19    1
    22    18    25    1
    23    18    31    1
    24    19    20    1
    25    19    21    1
    26    19    22    1
    27    23    24    1
    28    25    26    1
    29    25    27    1
    30    27    28    1
    31    27    29    1
    32    27    30    1
    33    31    32    1
    34    33    37    2
    35    33    38    1
    36    34    35    1
    37    34    36    1
    38    34    38    1
    39    34    39    1
    40    39    40    1
    41    39    41    1
    42    39    42    1
@<TRIPOS>SUBSTRUCTURE
     1 1           1 GROUP             0 ****  ****    0  
@<TRIPOS>MOLECULE
Molecule Name_00090
    42    42     1     0     0
SMALL
NO_CHARGES
****
Generated from the CSD

@<TRIPOS>ATOM
     1 C1       2.9912  -0.4618  -0.4148   C.ar      1 1      0.0000
     2 C2       2.1959  -0.0324  -1.4539   C.ar      1 1      0.0000
     3 C3       0.8651   0.2438  -1.1976   C.ar      1 1      0.0000
     4 C4       0.3253   0.0942   0.0751   C.ar      1 1      0.0000
     5 C5       1.1652  -0.3383   1.0953   C.ar      1 1      0.0000
     6 C6       2.4989  -0.6201   0.8616   C.ar      1 1      0.0000
     7 H7       2.6044   0.0866  -2.4519   H         1 1      0.0000
     8 H8       0.2334   0.5850  -2.0105   H         1 1      0.0000
     9 H9       0.7704  -0.4582   2.0987   H         1 1      0.0000
    10 H10      3.1433  -0.9585   1.6662   H         1 1      0.0000
    11 N11      4.4049  -0.7591  -0.6753   N.pl3     1 1      0.0000
    12 O12      5.0971  -1.1388   0.2564   O.2       1 1      0.0000
    13 O13      4.8264  -0.6137  -1.8121   O.2       1 1      0.0000
    14 CL3     -1.1498   0.3912   0.3485   C.3       1 1      0.0000
    15 CL1     -2.0372  -0.0938  -0.8329   C.3       1 1      0.0000
    16 H16     -2.9972   0.4346  -0.7906   H         1 1      0.0000
    17 H17     -1.5530   0.2019  -1.7718   H         1 1      0.0000
    18 CL      -2.3164  -1.6059  -0.8945   C.3       1 1      0.0000
    19 CL2     -1.0012  -2.3442  -1.0633   C.3       1 1      0.0000
    20 H20     -1.1742  -3.3810  -1.3441   H         1 1      0.0000
    21 H21     -0.3948  -1.8798  -1.8381   H         1 1      0.0000
    22 H22     -0.4319  -2.3347  -0.1362   H         1 1      0.0000
    23 OL2     -1.5089  -0.2658   1.5576   O.3       1 1      0.0000
    24 H24     -2.4504  -0.0575   1.7777   H         1 1      0.0000
    25 N25     -2.9389  -2.0515   0.3244   N.3       1 1      0.0000
    26 H26     -3.8066  -1.5252   0.4269   H         1 1      0.0000
    27 C27     -3.2846  -3.4711   0.4150   C.3       1 1      0.0000
    28 H28     -2.3967  -4.0916   0.3132   H         1 1      0.0000
    29 H29     -3.7465  -3.6951   1.3743   H         1 1      0.0000
    30 H30     -3.9839  -3.7487  -0.3709   H         1 1      0.0000
    31 OL1     -3.1123  -1.8933  -2.0381   O.3       1 1      0.0000
    32 H32     -3.2521  -2.8701  -2.1042   H         1 1      0.0000
    33 CL4     -1.2272   1.9196   0.5357   C.2       1 1      0.0000
    34 C34     -1.1762   3.6893   2.1143   C.3       1 1      0.0000
    35 H35     -1.8946   4.1877   1.4518   H         1 1      0.0000
    36 H36     -1.5109   3.8453   3.1473   H         1 1      0.0000
    37 OL3     -1.3701   2.6926  -0.3712   O.2       1 1      0.0000
    38 OL4     -1.1169   2.2639   1.8130   O.3       1 1      0.0000
    39 C39      0.1766   4.2584   1.9231   C.3       1 1      0.0000
    40 H40      0.5128   4.1179   0.8979   H         1 1      0.0000
    41 H41      0.1802   5.3251   2.1377   H         1 1      0.0000
    42 H42      0.8944   3.7773   2.5841   H         1 1      0.0000
@<TRIPOS>BOND
     1     1     2   ar
     2     1     6   ar
     3     1    11    1
     4     2     3   ar
     5     2     7    1
     6     3     4   ar
     7     3     8    1
     8     4     5   ar
     9     4    14    1
    10     5     6   ar
    11     5     9    1
    12     6    10    1
    13    11    12    2
    14    11    13    2
    15    14    15    1
    16    14    23    1
    17    14    33    1
    18    15    16    1
    19    15    17    1
    20    15    18    1
    21    18    19    1
    22    18    25    1
    23    18    31    1
    24    19    20    1
    25    19    21    1
    26    19    22    1
    27    23    24    1
    28    25    26    1
    29    25    27    1
    30    27    28    1
    31    27    29    1
    32    27    30    1
    33    31    32    1
    34    33    37    2
    35    33    38    1
    36    34    35    1
    37    34    36    1
    38    34    38    1
    39    34    39    1
    40    39    40    1
    41    39    41    1
    42    39    42    1
@<TRIPOS>SUBSTRUCTURE
     1 1           1 GROUP             0 ****  ****    0  
@<TRIPOS>MOLECULE
Molecule Name_00091
    42    42     1     0     0
SMALL
NO_CHARGES
****
Generated from the CSD

@<TRIPOS>ATOM
     1 C1       3.0557  -0.4281  -0.4184   C.ar      1 1      0.0000
     2 C2       2.2455  -0.0343  -1.4601   C.ar      1 1      0.0000
     3 C3       0.9033   0.1845  -1.2078   C.ar      1 1      0.0000
     4 C4       0.3669   0.0128   0.0635   C.ar      1 1      0.0000
     5 C5       1.2218  -0.3822   1.0865   C.ar      1 1      0.0000
     6 C6       2.5670  -0.6064   0.8567   C.ar      1 1      0.0000
     7 H7       2.6513   0.1015  -2.4572   H         1 1      0.0000
     8 H8       0.2599   0.4975  -2.0228   H         1 1      0.0000
     9 H9       0.8296  -0.5182   2.0888   H         1 1      0.0000
    10 H10      3.2231  -0.9160   1.6635   H         1 1      0.0000
    11 N11      4.4816  -0.6644  -0.6747   N.pl3     1 1      0.0000
    12 O12      5.1869  -1.0131   0.2592   O.2       1 1      0.0000
    13 O13      4.8996  -0.5018  -1.8105   O.2       1 1      0.0000
    14 CL3     -1.1204   0.2462   0.3325   C.3       1 1      0.0000
    15 CL1     -1.9827  -0.2776  -0.8509   C.3       1 1      0.0000
    16 H16     -2.9648   0.2089  -0.8117   H         1 1      0.0000
    17 H17     -1.5091   0.0380  -1.7887   H         1 1      0.0000
    18 CL      -2.1963  -1.8004  -0.9119   C.3       1 1      0.0000
    19 CL2     -0.8500  -2.4814  -1.0763   C.3       1 1      0.0000
    20 H20     -0.9774  -3.5250  -1.3567   H         1 1      0.0000
    21 H21     -0.2621  -1.9920  -1.8500   H         1 1      0.0000
    22 H22     -0.2842  -2.4466  -0.1477   H         1 1      0.0000
    23 OL2     -1.4543  -0.4247   1.5412   O.3       1 1      0.0000
    24 H24     -2.3690  -0.1691   1.8171   H         1 1      0.0000
    25 N25     -2.8024  -2.2714   0.3058   N.3       1 1      0.0000
    26 H26     -2.1602  -2.0469   1.0658   H         1 1      0.0000
    27 C27     -4.1047  -1.7064   0.6631   C.3       1 1      0.0000
    28 H28     -4.8455  -1.9312  -0.1014   H         1 1      0.0000
    29 H29     -4.4571  -2.1164   1.6073   H         1 1      0.0000
    30 H30     -4.0410  -0.6252   0.7658   H         1 1      0.0000
    31 OL1     -2.9758  -2.1227  -2.0574   O.3       1 1      0.0000
    32 H32     -3.0917  -3.1035  -2.1108   H         1 1      0.0000
    33 CL4     -1.2641   1.7700   0.5181   C.2       1 1      0.0000
    34 C34     -1.2939   3.5415   2.0951   C.3       1 1      0.0000
    35 H35     -2.0313   4.0079   1.4302   H         1 1      0.0000
    36 H36     -1.6380   3.6838   3.1270   H         1 1      0.0000
    37 OL3     -1.4377   2.5354  -0.3900   O.2       1 1      0.0000
    38 OL4     -1.1724   2.1197   1.7953   O.3       1 1      0.0000
    39 C39      0.0336   4.1683   1.9072   C.3       1 1      0.0000
    40 H40      0.3784   4.0415   0.8831   H         1 1      0.0000
    41 H41     -0.0094   5.2342   2.1208   H         1 1      0.0000
    42 H42      0.7696   3.7191   2.5707   H         1 1      0.0000
@<TRIPOS>BOND
     1     1     2   ar
     2     1     6   ar
     3     1    11    1
     4     2     3   ar
     5     2     7    1
     6     3     4   ar
     7     3     8    1
     8     4     5   ar
     9     4    14    1
    10     5     6   ar
    11     5     9    1
    12     6    10    1
    13    11    12    2
    14    11    13    2
    15    14    15    1
    16    14    23    1
    17    14    33    1
    18    15    16    1
    19    15    17    1
    20    15    18    1
    21    18    19    1
    22    18    25    1
    23    18    31    1
    24    19    20    1
    25    19    21    1
    26    19    22    1
    27    23    24    1
    28    25    26    1
    29    25    27    1
    30    27    28    1
    31    27    29    1
    32    27    30    1
    33    31    32    1
    34    33    37    2
    35    33    38    1
    36    34    35    1
    37    34    36    1
    38    34    38    1
    39    34    39    1
    40    39    40    1
    41    39    41    1
    42    39    42    1
@<TRIPOS>SUBSTRUCTURE
     1 1           1 GROUP             0 ****  ****    0  
@<TRIPOS>MOLECULE
Molecule Name_00092
    42    42     1     0     0
SMALL
NO_CHARGES
****
Generated from the CSD

@<TRIPOS>ATOM
     1 C1       3.0939  -0.6255  -0.3791   C.ar      1 1      0.0000
     2 C2       2.3387  -0.1629  -1.4337   C.ar      1 1      0.0000
     3 C3       1.0219   0.1896  -1.1997   C.ar      1 1      0.0000
     4 C4       0.4565   0.0831   0.0661   C.ar      1 1      0.0000
     5 C5       1.2562  -0.3853   1.1027   C.ar      1 1      0.0000
     6 C6       2.5753  -0.7434   0.8913   C.ar      1 1      0.0000
     7 H7       2.7674  -0.0768  -2.4267   H         1 1      0.0000
     8 H8       0.4220   0.5573  -2.0250   H         1 1      0.0000
     9 H9       0.8410  -0.4730   2.1011   H         1 1      0.0000
    10 H10      3.1882  -1.1091   1.7085   H         1 1      0.0000
    11 N11      4.4923  -1.0038  -0.6159   N.pl3     1 1      0.0000
    12 O12      5.1488  -1.4122   0.3294   O.2       1 1      0.0000
    13 O13      4.9374  -0.8934  -1.7476   O.2       1 1      0.0000
    14 CL3     -1.0035   0.4646   0.3150   C.3       1 1      0.0000
    15 CL1     -1.8996   0.0180  -0.8749   C.3       1 1      0.0000
    16 H16     -2.8292   0.5995  -0.8517   H         1 1      0.0000
    17 H17     -1.3863   0.2769  -1.8092   H         1 1      0.0000
    18 CL      -2.2620  -1.4767  -0.9268   C.3       1 1      0.0000
    19 CL2     -0.9878  -2.2889  -1.0693   C.3       1 1      0.0000
    20 H20     -1.2145  -3.3172  -1.3432   H         1 1      0.0000
    21 H21     -0.3455  -1.8668  -1.8393   H         1 1      0.0000
    22 H22     -0.4322  -2.3019  -0.1340   H         1 1      0.0000
    23 OL2     -1.4160  -0.1593   1.5246   O.3       1 1      0.0000
    24 H24     -2.3474   0.1033   1.7288   H         1 1      0.0000
    25 N25     -2.9257  -1.8747   0.2868   N.3       1 1      0.0000
    26 H26     -3.7641  -1.2999   0.3716   H         1 1      0.0000
    27 C27     -3.3515  -3.2719   0.3853   C.3       1 1      0.0000
    28 H28     -2.4983  -3.9419   0.3024   H         1 1      0.0000
    29 H29     -3.8388  -3.4602   1.3397   H         1 1      0.0000
    30 H30     -4.0540  -3.5179  -0.4082   H         1 1      0.0000
    31 OL1     -3.0563  -1.7307  -2.0794   O.3       1 1      0.0000
    32 H32     -3.2495  -2.6988  -2.1385   H         1 1      0.0000
    33 CL4     -0.9980   1.9967   0.4869   C.2       1 1      0.0000
    34 C34     -0.8707   3.7765   2.0498   C.3       1 1      0.0000
    35 H35     -0.3572   3.9668   3.0003   H         1 1      0.0000
    36 H36     -0.3280   4.3155   1.2635   H         1 1      0.0000
    37 OL3     -1.0845   2.7674  -0.4290   O.2       1 1      0.0000
    38 OL4     -0.8869   2.3470   1.7625   O.3       1 1      0.0000
    39 C39     -2.2714   4.2491   2.1212   C.3       1 1      0.0000
    40 H40     -2.8150   3.7273   2.9060   H         1 1      0.0000
    41 H41     -2.3083   5.3153   2.3346   H         1 1      0.0000
    42 H42     -2.7860   4.0741   1.1786   H         1 1      0.0000
@<TRIPOS>BOND
     1     1     2   ar
     2     1     6   ar
     3     1    11    1
     4     2     3   ar
     5     2     7    1
     6     3     4   ar
     7     3     8    1
     8     4     5   ar
     9     4    14    1
    10     5     6   ar
    11     5     9    1
    12     6    10    1
    13    11    12    2
    14    11    13    2
    15    14    15    1
    16    14    23    1
    17    14    33    1
    18    15    16    1
    19    15    17    1
    20    15    18    1
    21    18    19    1
    22    18    25    1
    23    18    31    1
    24    19    20    1
    25    19    21    1
    26    19    22    1
    27    23    24    1
    28    25    26    1
    29    25    27    1
    30    27    28    1
    31    27    29    1
    32    27    30    1
    33    31    32    1
    34    33    37    2
    35    33    38    1
    36    34    35    1
    37    34    36    1
    38    34    38    1
    39    34    39    1
    40    39    40    1
    41    39    41    1
    42    39    42    1
@<TRIPOS>SUBSTRUCTURE
     1 1           1 GROUP             0 ****  ****    0  
@<TRIPOS>MOLECULE
Molecule Name_00093
    42    42     1     0     0
SMALL
NO_CHARGES
****
Generated from the CSD

@<TRIPOS>ATOM
     1 C1       3.1592  -0.5936  -0.3834   C.ar      1 1      0.0000
     2 C2       2.3873  -0.1639  -1.4399   C.ar      1 1      0.0000
     3 C3       1.0564   0.1334  -1.2088   C.ar      1 1      0.0000
     4 C4       0.4935   0.0043   0.0561   C.ar      1 1      0.0000
     5 C5       1.3102  -0.4292   1.0946   C.ar      1 1      0.0000
     6 C6       2.6435  -0.7319   0.8860   C.ar      1 1      0.0000
     7 H7       2.8140  -0.0608  -2.4322   H         1 1      0.0000
     8 H8       0.4433   0.4749  -2.0356   H         1 1      0.0000
     9 H9       0.8970  -0.5333   2.0923   H         1 1      0.0000
    10 H10      3.2696  -1.0709   1.7048   H         1 1      0.0000
    11 N11      4.5727  -0.9132  -0.6172   N.pl3     1 1      0.0000
    12 O12      5.2438  -1.2929   0.3297   O.2       1 1      0.0000
    13 O13      5.0150  -0.7853  -1.7482   O.2       1 1      0.0000
    14 CL3     -0.9816   0.3246   0.3017   C.3       1 1      0.0000
    15 CL1     -1.8560  -0.1602  -0.8895   C.3       1 1      0.0000
    16 H16     -2.8091   0.3819  -0.8686   H         1 1      0.0000
    17 H17     -1.3521   0.1192  -1.8230   H         1 1      0.0000
    18 CL      -2.1553  -1.6688  -0.9406   C.3       1 1      0.0000
    19 CL2     -0.8480  -2.4270  -1.0799   C.3       1 1      0.0000
    20 H20     -1.0308  -3.4641  -1.3532   H         1 1      0.0000
    21 H21     -0.2224  -1.9790  -1.8492   H         1 1      0.0000
    22 H22     -0.2940  -2.4159  -0.1436   H         1 1      0.0000
    23 OL2     -1.3700  -0.3149   1.5111   O.3       1 1      0.0000
    24 H24     -2.2724  -0.0051   1.7717   H         1 1      0.0000
    25 N25     -2.8041  -2.0932   0.2721   N.3       1 1      0.0000
    26 H26     -2.1608  -1.8986   1.0394   H         1 1      0.0000
    27 C27     -4.0769  -1.4516   0.6059   C.3       1 1      0.0000
    28 H28     -4.8187  -1.6408  -0.1672   H         1 1      0.0000
    29 H29     -4.4651  -1.8321   1.5484   H         1 1      0.0000
    30 H30     -3.9530  -0.3748   0.7004   H         1 1      0.0000
    31 OL1     -2.9360  -1.9568  -2.0945   O.3       1 1      0.0000
    32 H32     -3.1070  -2.9298  -2.1412   H         1 1      0.0000
    33 CL4     -1.0406   1.8558   0.4722   C.2       1 1      0.0000
    34 C34     -0.9910   3.6407   2.0337   C.3       1 1      0.0000
    35 H35     -0.4878   3.8532   2.9850   H         1 1      0.0000
    36 H36     -0.4698   4.2013   1.2479   H         1 1      0.0000
    37 OL3     -1.1575   2.6213  -0.4446   O.2       1 1      0.0000
    38 OL4     -0.9468   2.2115   1.7477   O.3       1 1      0.0000
    39 C39     -2.4105   4.0543   2.1019   C.3       1 1      0.0000
    40 H40     -2.9333   3.5109   2.8862   H         1 1      0.0000
    41 H41     -2.4924   5.1182   2.3142   H         1 1      0.0000
    42 H42     -2.9154   3.8571   1.1585   H         1 1      0.0000
@<TRIPOS>BOND
     1     1     2   ar
     2     1     6   ar
     3     1    11    1
     4     2     3   ar
     5     2     7    1
     6     3     4   ar
     7     3     8    1
     8     4     5   ar
     9     4    14    1
    10     5     6   ar
    11     5     9    1
    12     6    10    1
    13    11    12    2
    14    11    13    2
    15    14    15    1
    16    14    23    1
    17    14    33    1
    18    15    16    1
    19    15    17    1
    20    15    18    1
    21    18    19    1
    22    18    25    1
    23    18    31    1
    24    19    20    1
    25    19    21    1
    26    19    22    1
    27    23    24    1
    28    25    26    1
    29    25    27    1
    30    27    28    1
    31    27    29    1
    32    27    30    1
    33    31    32    1
    34    33    37    2
    35    33    38    1
    36    34    35    1
    37    34    36    1
    38    34    38    1
    39    34    39    1
    40    39    40    1
    41    39    41    1
    42    39    42    1
@<TRIPOS>SUBSTRUCTURE
     1 1           1 GROUP             0 ****  ****    0  
@<TRIPOS>MOLECULE
Molecule Name_00094
    42    42     1     0     0
SMALL
NO_CHARGES
****
Generated from the CSD

@<TRIPOS>ATOM
     1 C1       2.9856  -0.6808  -0.1907   C.ar      1 1      0.0000
     2 C2       2.3804  -1.2478   0.9088   C.ar      1 1      0.0000
     3 C3       1.0725  -0.9016   1.1958   C.ar      1 1      0.0000
     4 C4       0.3702  -0.0004   0.4034   C.ar      1 1      0.0000
     5 C5       1.0187   0.5453  -0.6989   C.ar      1 1      0.0000
     6 C6       2.3260   0.2132  -1.0046   C.ar      1 1      0.0000
     7 H7       2.9181  -1.9510   1.5363   H         1 1      0.0000
     8 H8       0.5887  -1.3463   2.0586   H         1 1      0.0000
     9 H9       0.4915   1.2469  -1.3366   H         1 1      0.0000
    10 H10      2.8212   0.6474  -1.8668   H         1 1      0.0000
    11 N11      4.3739  -1.0399  -0.5044   N.pl3     1 1      0.0000
    12 O12      4.8964  -0.5287  -1.4825   O.2       1 1      0.0000
    13 O13      4.9450  -1.8340   0.2267   O.2       1 1      0.0000
    14 CL3     -1.0723   0.3859   0.7333   C.3       1 1      0.0000
    15 CL1     -2.0059   0.1161  -0.4808   C.3       1 1      0.0000
    16 H16     -2.8967   0.7488  -0.3859   H         1 1      0.0000
    17 H17     -1.4860   0.4344  -1.3928   H         1 1      0.0000
    18 CL      -2.4622  -1.3407  -0.6743   C.3       1 1      0.0000
    19 CL2     -3.3708  -1.4163  -1.8877   C.3       1 1      0.0000
    20 H20     -3.7255  -2.4334  -2.0412   H         1 1      0.0000
    21 H21     -4.2373  -0.7706  -1.7616   H         1 1      0.0000
    22 H22     -2.8422  -1.1026  -2.7855   H         1 1      0.0000
    23 OL2     -1.4779  -0.3733   1.8654   O.3       1 1      0.0000
    24 H24     -2.3966  -0.1135   2.1233   H         1 1      0.0000
    25 N25     -1.3269  -2.1969  -0.8980   N.3       1 1      0.0000
    26 H26     -0.7454  -2.1472  -0.0615   H         1 1      0.0000
    27 C27     -1.6001  -3.6133  -1.1474   C.3       1 1      0.0000
    28 H28     -2.2200  -3.7364  -2.0330   H         1 1      0.0000
    29 H29     -0.6742  -4.1631  -1.3027   H         1 1      0.0000
    30 H30     -2.1220  -4.0598  -0.3036   H         1 1      0.0000
    31 OL1     -3.2275  -1.7500   0.4529   O.3       1 1      0.0000
    32 H32     -3.5431  -2.6774   0.3167   H         1 1      0.0000
    33 CL4     -1.0179   1.8837   1.0948   C.2       1 1      0.0000
    34 C34     -0.6017   4.0683   0.2695   C.3       1 1      0.0000
    35 H35     -0.1946   4.2757   1.2669   H         1 1      0.0000
    36 H36      0.0694   4.5272  -0.4670   H         1 1      0.0000
    37 OL3     -1.2498   2.3101   2.1924   O.2       1 1      0.0000
    38 OL4     -0.6855   2.6294   0.0481   O.3       1 1      0.0000
    39 C39     -1.9632   4.6349   0.1444   C.3       1 1      0.0000
    40 H40     -2.6338   4.1931   0.8786   H         1 1      0.0000
    41 H41     -1.9491   5.7112   0.3027   H         1 1      0.0000
    42 H42     -2.3712   4.4432  -0.8458   H         1 1      0.0000
@<TRIPOS>BOND
     1     1     2   ar
     2     1     6   ar
     3     1    11    1
     4     2     3   ar
     5     2     7    1
     6     3     4   ar
     7     3     8    1
     8     4     5   ar
     9     4    14    1
    10     5     6   ar
    11     5     9    1
    12     6    10    1
    13    11    12    2
    14    11    13    2
    15    14    15    1
    16    14    23    1
    17    14    33    1
    18    15    16    1
    19    15    17    1
    20    15    18    1
    21    18    19    1
    22    18    25    1
    23    18    31    1
    24    19    20    1
    25    19    21    1
    26    19    22    1
    27    23    24    1
    28    25    26    1
    29    25    27    1
    30    27    28    1
    31    27    29    1
    32    27    30    1
    33    31    32    1
    34    33    37    2
    35    33    38    1
    36    34    35    1
    37    34    36    1
    38    34    38    1
    39    34    39    1
    40    39    40    1
    41    39    41    1
    42    39    42    1
@<TRIPOS>SUBSTRUCTURE
     1 1           1 GROUP             0 ****  ****    0  
@<TRIPOS>MOLECULE
Molecule Name_00095
    42    42     1     0     0
SMALL
NO_CHARGES
****
Generated from the CSD

@<TRIPOS>ATOM
     1 C1       2.9201  -0.7499  -0.1770   C.ar      1 1      0.0000
     2 C2       2.3434  -1.2794   0.9560   C.ar      1 1      0.0000
     3 C3       1.0422  -0.9251   1.2631   C.ar      1 1      0.0000
     4 C4       0.3188  -0.0526   0.4577   C.ar      1 1      0.0000
     5 C5       0.9388   0.4555  -0.6784   C.ar      1 1      0.0000
     6 C6       2.2389   0.1146  -1.0046   C.ar      1 1      0.0000
     7 H7       2.8978  -1.9599   1.5939   H         1 1      0.0000
     8 H8       0.5807  -1.3403   2.1524   H         1 1      0.0000
     9 H9       0.3946   1.1341  -1.3267   H         1 1      0.0000
    10 H10      2.7117   0.5195  -1.8933   H         1 1      0.0000
    11 N11      4.3010  -1.1179  -0.5122   N.pl3     1 1      0.0000
    12 O12      4.7983  -0.6402  -1.5201   O.2       1 1      0.0000
    13 O13      4.8916  -1.8857   0.2314   O.2       1 1      0.0000
    14 CL3     -1.1160   0.3431   0.8097   C.3       1 1      0.0000
    15 CL1     -2.0840  -0.0007  -0.3579   C.3       1 1      0.0000
    16 H16     -3.0020   0.5870  -0.2372   H         1 1      0.0000
    17 H17     -1.6200   0.3243  -1.2973   H         1 1      0.0000
    18 CL      -2.4709  -1.4830  -0.5034   C.3       1 1      0.0000
    19 CL2     -3.4179  -1.6327  -1.6799   C.3       1 1      0.0000
    20 H20     -3.6242  -2.6825  -1.8778   H         1 1      0.0000
    21 H21     -4.3636  -1.1333  -1.4798   H         1 1      0.0000
    22 H22     -2.9879  -1.1964  -2.5791   H         1 1      0.0000
    23 OL2     -1.4810  -0.3531   1.9948   O.3       1 1      0.0000
    24 H24     -2.3934  -0.0847   2.2659   H         1 1      0.0000
    25 N25     -1.3016  -2.2850  -0.7515   N.3       1 1      0.0000
    26 H26     -1.6058  -3.2583  -0.7740   H         1 1      0.0000
    27 C27     -0.5740  -2.0338  -1.9967   C.3       1 1      0.0000
    28 H28     -0.5442  -0.9689  -2.2179   H         1 1      0.0000
    29 H29      0.4502  -2.3936  -1.9242   H         1 1      0.0000
    30 H30     -1.0529  -2.5402  -2.8321   H         1 1      0.0000
    31 OL1     -3.1724  -1.9048   0.6601   O.3       1 1      0.0000
    32 H32     -3.4433  -2.8502   0.5559   H         1 1      0.0000
    33 CL4     -1.0622   1.8593   1.0841   C.2       1 1      0.0000
    34 C34     -0.7007   3.9969   0.1217   C.3       1 1      0.0000
    35 H35     -0.2565   4.2634   1.0887   H         1 1      0.0000
    36 H36     -0.0639   4.4187  -0.6657   H         1 1      0.0000
    37 OL3     -1.2547   2.3451   2.1646   O.2       1 1      0.0000
    38 OL4     -0.7789   2.5473  -0.0152   O.3       1 1      0.0000
    39 C39     -2.0717   4.5451   0.0197   C.3       1 1      0.0000
    40 H40     -2.7082   4.1403   0.8037   H         1 1      0.0000
    41 H41     -2.0620   5.6287   0.1166   H         1 1      0.0000
    42 H42     -2.5166   4.2948  -0.9411   H         1 1      0.0000
@<TRIPOS>BOND
     1     1     2   ar
     2     1     6   ar
     3     1    11    1
     4     2     3   ar
     5     2     7    1
     6     3     4   ar
     7     3     8    1
     8     4     5   ar
     9     4    14    1
    10     5     6   ar
    11     5     9    1
    12     6    10    1
    13    11    12    2
    14    11    13    2
    15    14    15    1
    16    14    23    1
    17    14    33    1
    18    15    16    1
    19    15    17    1
    20    15    18    1
    21    18    19    1
    22    18    25    1
    23    18    31    1
    24    19    20    1
    25    19    21    1
    26    19    22    1
    27    23    24    1
    28    25    26    1
    29    25    27    1
    30    27    28    1
    31    27    29    1
    32    27    30    1
    33    31    32    1
    34    33    37    2
    35    33    38    1
    36    34    35    1
    37    34    36    1
    38    34    38    1
    39    34    39    1
    40    39    40    1
    41    39    41    1
    42    39    42    1
@<TRIPOS>SUBSTRUCTURE
     1 1           1 GROUP             0 ****  ****    0  
@<TRIPOS>MOLECULE
Molecule Name_00096
    42    42     1     0     0
SMALL
NO_CHARGES
****
Generated from the CSD

@<TRIPOS>ATOM
     1 C1       2.8923  -0.5294  -0.2242   C.ar      1 1      0.0000
     2 C2       2.3265  -1.0898   0.8994   C.ar      1 1      0.0000
     3 C3       1.0041  -0.8040   1.1866   C.ar      1 1      0.0000
     4 C4       0.2488   0.0309   0.3707   C.ar      1 1      0.0000
     5 C5       0.8590   0.5722  -0.7554   C.ar      1 1      0.0000
     6 C6       2.1799   0.2999  -1.0617   C.ar      1 1      0.0000
     7 H7       2.9056  -1.7415   1.5452   H         1 1      0.0000
     8 H8       0.5512  -1.2441   2.0683   H         1 1      0.0000
     9 H9       0.2903   1.2227  -1.4115   H         1 1      0.0000
    10 H10      2.6447   0.7301  -1.9426   H         1 1      0.0000
    11 N11      4.2955  -0.8247  -0.5384   N.pl3     1 1      0.0000
    12 O12      4.7827  -0.3202  -1.5380   O.2       1 1      0.0000
    13 O13      4.9136  -1.5618   0.2138   O.2       1 1      0.0000
    14 CL3     -1.2098   0.3510   0.7007   C.3       1 1      0.0000
    15 CL1     -2.1366  -0.0094  -0.4949   C.3       1 1      0.0000
    16 H16     -3.0592   0.5778  -0.4132   H         1 1      0.0000
    17 H17     -1.6413   0.3047  -1.4220   H         1 1      0.0000
    18 CL      -2.5159  -1.4943  -0.6349   C.3       1 1      0.0000
    19 CL2     -3.4280  -1.6595  -1.8367   C.3       1 1      0.0000
    20 H20     -3.7290  -2.6986  -1.9524   H         1 1      0.0000
    21 H21     -4.3269  -1.0568  -1.7244   H         1 1      0.0000
    22 H22     -2.9236  -1.3491  -2.7493   H         1 1      0.0000
    23 OL2     -1.5658  -0.3896   1.8615   O.3       1 1      0.0000
    24 H24     -2.4952  -0.1703   2.1190   H         1 1      0.0000
    25 N25     -1.3381  -2.2960  -0.8401   N.3       1 1      0.0000
    26 H26     -0.7539  -2.1868  -0.0111   H         1 1      0.0000
    27 C27     -1.5370  -3.7326  -1.0389   C.3       1 1      0.0000
    28 H28     -2.1560  -3.9188  -1.9141   H         1 1      0.0000
    29 H29     -0.5842  -4.2374  -1.1841   H         1 1      0.0000
    30 H30     -2.0280  -4.1771  -0.1758   H         1 1      0.0000
    31 OL1     -3.2498  -1.9049   0.5125   O.3       1 1      0.0000
    32 H32     -3.5163  -2.8518   0.4106   H         1 1      0.0000
    33 CL4     -1.2329   1.8611   1.0109   C.2       1 1      0.0000
    34 C34     -0.9402   4.0351   0.1085   C.3       1 1      0.0000
    35 H35     -1.1327   4.5323  -0.8502   H         1 1      0.0000
    36 H36     -1.7299   4.3390   0.8067   H         1 1      0.0000
    37 OL3     -1.4791   2.3118   2.0956   O.2       1 1      0.0000
    38 OL4     -0.9486   2.5871  -0.0634   O.3       1 1      0.0000
    39 C39      0.3863   4.4303   0.6327   C.3       1 1      0.0000
    40 H40      1.1756   4.1423  -0.0586   H         1 1      0.0000
    41 H41      0.4387   5.5073   0.7772   H         1 1      0.0000
    42 H42      0.5817   3.9500   1.5893   H         1 1      0.0000
@<TRIPOS>BOND
     1     1     2   ar
     2     1     6   ar
     3     1    11    1
     4     2     3   ar
     5     2     7    1
     6     3     4   ar
     7     3     8    1
     8     4     5   ar
     9     4    14    1
    10     5     6   ar
    11     5     9    1
    12     6    10    1
    13    11    12    2
    14    11    13    2
    15    14    15    1
    16    14    23    1
    17    14    33    1
    18    15    16    1
    19    15    17    1
    20    15    18    1
    21    18    19    1
    22    18    25    1
    23    18    31    1
    24    19    20    1
    25    19    21    1
    26    19    22    1
    27    23    24    1
    28    25    26    1
    29    25    27    1
    30    27    28    1
    31    27    29    1
    32    27    30    1
    33    31    32    1
    34    33    37    2
    35    33    38    1
    36    34    35    1
    37    34    36    1
    38    34    38    1
    39    34    39    1
    40    39    40    1
    41    39    41    1
    42    39    42    1
@<TRIPOS>SUBSTRUCTURE
     1 1           1 GROUP             0 ****  ****    0  
@<TRIPOS>MOLECULE
Molecule Name_00097
    42    42     1     0     0
SMALL
NO_CHARGES
****
Generated from the CSD

@<TRIPOS>ATOM
     1 C1       2.8312  -0.5946  -0.2097   C.ar      1 1      0.0000
     2 C2       2.2961  -1.1189   0.9459   C.ar      1 1      0.0000
     3 C3       0.9798  -0.8289   1.2561   C.ar      1 1      0.0000
     4 C4       0.2004  -0.0251   0.4315   C.ar      1 1      0.0000
     5 C5       0.7800   0.4801  -0.7271   C.ar      1 1      0.0000
     6 C6       2.0942   0.2029  -1.0567   C.ar      1 1      0.0000
     7 H7       2.8941  -1.7460   1.5988   H         1 1      0.0000
     8 H8       0.5509  -1.2406   2.1631   H         1 1      0.0000
     9 H9       0.1921   1.1056  -1.3905   H         1 1      0.0000
    10 H10      2.5350   0.6049  -1.9630   H         1 1      0.0000
    11 N11      4.2276  -0.8947  -0.5485   N.pl3     1 1      0.0000
    12 O12      4.6875  -0.4224  -1.5764   O.2       1 1      0.0000
    13 O13      4.8677  -1.6033   0.2126   O.2       1 1      0.0000
    14 CL3     -1.2511   0.3000   0.7866   C.3       1 1      0.0000
    15 CL1     -2.2089  -0.1354  -0.3586   C.3       1 1      0.0000
    16 H16     -3.1576   0.4031  -0.2464   H         1 1      0.0000
    17 H17     -1.7729   0.1846  -1.3130   H         1 1      0.0000
    18 CL      -2.5123  -1.6412  -0.4527   C.3       1 1      0.0000
    19 CL2     -3.4602  -1.8821  -1.6132   C.3       1 1      0.0000
    20 H20     -3.6083  -2.9477  -1.7754   H         1 1      0.0000
    21 H21     -4.4308  -1.4307  -1.4186   H         1 1      0.0000
    22 H22     -3.0640  -1.4515  -2.5305   H         1 1      0.0000
    23 OL2     -1.5649  -0.3770   1.9972   O.3       1 1      0.0000
    24 H24     -2.4886  -0.1519   2.2698   H         1 1      0.0000
    25 N25     -1.3017  -2.3834  -0.6882   N.3       1 1      0.0000
    26 H26     -1.5503  -3.3726  -0.6763   H         1 1      0.0000
    27 C27     -0.6011  -2.1319  -1.9487   C.3       1 1      0.0000
    28 H28     -0.6340  -1.0748  -2.2039   H         1 1      0.0000
    29 H29      0.4425  -2.4308  -1.8763   H         1 1      0.0000
    30 H30     -1.0582  -2.6913  -2.7623   H         1 1      0.0000
    31 OL1     -3.1778  -2.0641   0.7314   O.3       1 1      0.0000
    32 H32     -3.3955  -3.0262   0.6603   H         1 1      0.0000
    33 CL4     -1.2810   1.8250   1.0122   C.2       1 1      0.0000
    34 C34     -1.0505   3.9473  -0.0217   C.3       1 1      0.0000
    35 H35     -1.2862   4.3875  -0.9985   H         1 1      0.0000
    36 H36     -1.8164   4.2821   0.6888   H         1 1      0.0000
    37 OL3     -1.4907   2.3338   2.0787   O.2       1 1      0.0000
    38 OL4     -1.0475   2.4919  -0.1116   O.3       1 1      0.0000
    39 C39      0.2902   4.3851   0.4270   C.3       1 1      0.0000
    40 H40      1.0557   4.0666  -0.2775   H         1 1      0.0000
    41 H41      0.3347   5.4691   0.5086   H         1 1      0.0000
    42 H42      0.5284   3.9618   1.4006   H         1 1      0.0000
@<TRIPOS>BOND
     1     1     2   ar
     2     1     6   ar
     3     1    11    1
     4     2     3   ar
     5     2     7    1
     6     3     4   ar
     7     3     8    1
     8     4     5   ar
     9     4    14    1
    10     5     6   ar
    11     5     9    1
    12     6    10    1
    13    11    12    2
    14    11    13    2
    15    14    15    1
    16    14    23    1
    17    14    33    1
    18    15    16    1
    19    15    17    1
    20    15    18    1
    21    18    19    1
    22    18    25    1
    23    18    31    1
    24    19    20    1
    25    19    21    1
    26    19    22    1
    27    23    24    1
    28    25    26    1
    29    25    27    1
    30    27    28    1
    31    27    29    1
    32    27    30    1
    33    31    32    1
    34    33    37    2
    35    33    38    1
    36    34    35    1
    37    34    36    1
    38    34    38    1
    39    34    39    1
    40    39    40    1
    41    39    41    1
    42    39    42    1
@<TRIPOS>SUBSTRUCTURE
     1 1           1 GROUP             0 ****  ****    0  
@<TRIPOS>MOLECULE
Molecule Name_00098
    42    42     1     0     0
SMALL
NO_CHARGES
****
Generated from the CSD

@<TRIPOS>ATOM
     1 C1       3.6464  -0.3968  -0.1111   C.ar      1 1      0.0000
     2 C2       2.9623   0.7653  -0.3910   C.ar      1 1      0.0000
     3 C3       1.5930   0.7894  -0.1983   C.ar      1 1      0.0000
     4 C4       0.9059  -0.3272   0.2648   C.ar      1 1      0.0000
     5 C5       1.6366  -1.4782   0.5381   C.ar      1 1      0.0000
     6 C6       3.0064  -1.5245   0.3528   C.ar      1 1      0.0000
     7 H7       3.4864   1.6430  -0.7546   H         1 1      0.0000
     8 H8       1.0481   1.7020  -0.4140   H         1 1      0.0000
     9 H9       1.1255  -2.3618   0.9056   H         1 1      0.0000
    10 H10      3.5646  -2.4296   0.5682   H         1 1      0.0000
    11 N11      5.0998  -0.4344  -0.3130   N.pl3     1 1      0.0000
    12 O12      5.6920  -1.4720  -0.0604   O.2       1 1      0.0000
    13 O13      5.6527   0.5737  -0.7246   O.2       1 1      0.0000
    14 CL3     -0.6100  -0.2964   0.4651   C.3       1 1      0.0000
    15 CL1     -1.3449  -0.7712  -0.8205   C.3       1 1      0.0000
    16 H16     -1.1043  -0.0804  -1.6376   H         1 1      0.0000
    17 H17     -0.9434  -1.7517  -1.1049   H         1 1      0.0000
    18 CL      -2.8757  -0.8922  -0.7206   C.3       1 1      0.0000
    19 CL2     -3.4286  -1.2946  -2.0755   C.3       1 1      0.0000
    20 H20     -4.5147  -1.3519  -2.0474   H         1 1      0.0000
    21 H21     -3.1469  -0.5709  -2.8374   H         1 1      0.0000
    22 H22     -3.0455  -2.2681  -2.3746   H         1 1      0.0000
    23 OL2     -0.9201  -1.1382   1.5686   O.3       1 1      0.0000
    24 H24     -1.4841  -0.6421   2.2121   H         1 1      0.0000
    25 N25     -3.2379  -1.9011   0.2401   N.3       1 1      0.0000
    26 H26     -2.8360  -1.6204   1.1346   H         1 1      0.0000
    27 C27     -4.6672  -2.1254   0.4632   C.3       1 1      0.0000
    28 H28     -5.1548  -2.4480  -0.4544   H         1 1      0.0000
    29 H29     -4.8239  -2.8930   1.2182   H         1 1      0.0000
    30 H30     -5.1526  -1.2125   0.8021   H         1 1      0.0000
    31 OL1     -3.4301   0.3777  -0.3981   O.3       1 1      0.0000
    32 H32     -4.4167   0.3107  -0.3804   H         1 1      0.0000
    33 CL4     -0.9432   1.1690   0.8096   C.2       1 1      0.0000
    34 C34     -1.4117   3.3167  -0.0816   C.3       1 1      0.0000
    35 H35     -0.8817   3.7038   0.7974   H         1 1      0.0000
    36 H36     -1.0922   3.9058  -0.9501   H         1 1      0.0000
    37 OL3     -1.0506   1.5785   1.9326   O.2       1 1      0.0000
    38 OL4     -1.0934   1.9080  -0.2829   O.3       1 1      0.0000
    39 C39     -2.8745   3.4371   0.1086   C.3       1 1      0.0000
    40 H40     -3.1992   2.8643   0.9747   H         1 1      0.0000
    41 H41     -3.1592   4.4758   0.2630   H         1 1      0.0000
    42 H42     -3.4086   3.0653  -0.7633   H         1 1      0.0000
@<TRIPOS>BOND
     1     1     2   ar
     2     1     6   ar
     3     1    11    1
     4     2     3   ar
     5     2     7    1
     6     3     4   ar
     7     3     8    1
     8     4     5   ar
     9     4    14    1
    10     5     6   ar
    11     5     9    1
    12     6    10    1
    13    11    12    2
    14    11    13    2
    15    14    15    1
    16    14    23    1
    17    14    33    1
    18    15    16    1
    19    15    17    1
    20    15    18    1
    21    18    19    1
    22    18    25    1
    23    18    31    1
    24    19    20    1
    25    19    21    1
    26    19    22    1
    27    23    24    1
    28    25    26    1
    29    25    27    1
    30    27    28    1
    31    27    29    1
    32    27    30    1
    33    31    32    1
    34    33    37    2
    35    33    38    1
    36    34    35    1
    37    34    36    1
    38    34    38    1
    39    34    39    1
    40    39    40    1
    41    39    41    1
    42    39    42    1
@<TRIPOS>SUBSTRUCTURE
     1 1           1 GROUP             0 ****  ****    0  
@<TRIPOS>MOLECULE
Molecule Name_00099
    42    42     1     0     0
SMALL
NO_CHARGES
****
Generated from the CSD

@<TRIPOS>ATOM
     1 C1       3.5431  -0.4843  -0.1161   C.ar      1 1      0.0000
     2 C2       2.9028   0.6989  -0.4104   C.ar      1 1      0.0000
     3 C3       1.5375   0.7810  -0.2050   C.ar      1 1      0.0000
     4 C4       0.8116  -0.2990   0.2849   C.ar      1 1      0.0000
     5 C5       1.4988  -1.4731   0.5720   C.ar      1 1      0.0000
     6 C6       2.8637  -1.5773   0.3743   C.ar      1 1      0.0000
     7 H7       3.4575   1.5485  -0.7949   H         1 1      0.0000
     8 H8       1.0272   1.7106  -0.4320   H         1 1      0.0000
     9 H9       0.9568  -2.3290   0.9603   H         1 1      0.0000
    10 H10      3.3878  -2.4999   0.6008   H         1 1      0.0000
    11 N11      4.9917  -0.5834  -0.3312   N.pl3     1 1      0.0000
    12 O12      5.5448  -1.6392  -0.0655   O.2       1 1      0.0000
    13 O13      5.5798   0.3943  -0.7664   O.2       1 1      0.0000
    14 CL3     -0.6997  -0.2042   0.4992   C.3       1 1      0.0000
    15 CL1     -1.4662  -0.6721  -0.7704   C.3       1 1      0.0000
    16 H16     -1.2069  -0.0061  -1.6023   H         1 1      0.0000
    17 H17     -1.1069  -1.6727  -1.0408   H         1 1      0.0000
    18 CL      -2.9995  -0.7302  -0.6536   C.3       1 1      0.0000
    19 CL2     -3.5819  -1.1343  -1.9956   C.3       1 1      0.0000
    20 H20     -4.6673  -1.1895  -1.9442   H         1 1      0.0000
    21 H21     -3.3152  -0.4126  -2.7648   H         1 1      0.0000
    22 H22     -3.2071  -2.1090  -2.3009   H         1 1      0.0000
    23 OL2     -1.0316  -1.0132   1.6208   O.3       1 1      0.0000
    24 H24     -2.0006  -0.9387   1.8045   H         1 1      0.0000
    25 N25     -3.3915  -1.7066   0.3287   N.3       1 1      0.0000
    26 H26     -4.4104  -1.6930   0.3740   H         1 1      0.0000
    27 C27     -2.9911  -3.0936   0.0853   C.3       1 1      0.0000
    28 H28     -1.9080  -3.1776   0.0262   H         1 1      0.0000
    29 H29     -3.3380  -3.7416   0.8874   H         1 1      0.0000
    30 H30     -3.4108  -3.4577  -0.8501   H         1 1      0.0000
    31 OL1     -3.4997   0.5663  -0.3489   O.3       1 1      0.0000
    32 H32     -4.4870   0.5343  -0.2989   H         1 1      0.0000
    33 CL4     -0.9710   1.2792   0.8202   C.2       1 1      0.0000
    34 C34     -1.3631   3.4277  -0.1053   C.3       1 1      0.0000
    35 H35     -0.8091   3.8089   0.7614   H         1 1      0.0000
    36 H36     -1.0295   3.9881  -0.9875   H         1 1      0.0000
    37 OL3     -1.0505   1.7126   1.9366   O.2       1 1      0.0000
    38 OL4     -1.1030   2.0041  -0.2840   O.3       1 1      0.0000
    39 C39     -2.8179   3.6096   0.0967   C.3       1 1      0.0000
    40 H40     -3.1562   3.0657   0.9762   H         1 1      0.0000
    41 H41     -3.0596   4.6614   0.2349   H         1 1      0.0000
    42 H42     -3.3754   3.2440  -0.7631   H         1 1      0.0000
@<TRIPOS>BOND
     1     1     2   ar
     2     1     6   ar
     3     1    11    1
     4     2     3   ar
     5     2     7    1
     6     3     4   ar
     7     3     8    1
     8     4     5   ar
     9     4    14    1
    10     5     6   ar
    11     5     9    1
    12     6    10    1
    13    11    12    2
    14    11    13    2
    15    14    15    1
    16    14    23    1
    17    14    33    1
    18    15    16    1
    19    15    17    1
    20    15    18    1
    21    18    19    1
    22    18    25    1
    23    18    31    1
    24    19    20    1
    25    19    21    1
    26    19    22    1
    27    23    24    1
    28    25    26    1
    29    25    27    1
    30    27    28    1
    31    27    29    1
    32    27    30    1
    33    31    32    1
    34    33    37    2
    35    33    38    1
    36    34    35    1
    37    34    36    1
    38    34    38    1
    39    34    39    1
    40    39    40    1
    41    39    41    1
    42    39    42    1
@<TRIPOS>SUBSTRUCTURE
     1 1           1 GROUP             0 ****  ****    0  
@<TRIPOS>MOLECULE
Molecule Name_00100
    42    42     1     0     0
SMALL
NO_CHARGES
****
Generated from the CSD

@<TRIPOS>ATOM
     1 C1       3.5380  -0.2537  -0.1339   C.ar      1 1      0.0000
     2 C2       2.7946   0.8704  -0.4175   C.ar      1 1      0.0000
     3 C3       1.4271   0.8273  -0.2153   C.ar      1 1      0.0000
     4 C4       0.8001  -0.3188   0.2609   C.ar      1 1      0.0000
     5 C5       1.5895  -1.4295   0.5376   C.ar      1 1      0.0000
     6 C6       2.9586  -1.4085   0.3429   C.ar      1 1      0.0000
     7 H7       3.2715   1.7704  -0.7914   H         1 1      0.0000
     8 H8       0.8357   1.7097  -0.4340   H         1 1      0.0000
     9 H9       1.1258  -2.3347   0.9152   H         1 1      0.0000
    10 H10      3.5630  -2.2827   0.5611   H         1 1      0.0000
    11 N11      4.9902  -0.2199  -0.3457   N.pl3     1 1      0.0000
    12 O12      5.6353  -1.2246  -0.0895   O.2       1 1      0.0000
    13 O13      5.4889   0.8114  -0.7687   O.2       1 1      0.0000
    14 CL3     -0.7140  -0.3624   0.4716   C.3       1 1      0.0000
    15 CL1     -1.4328  -0.8835  -0.8052   C.3       1 1      0.0000
    16 H16     -1.2326  -0.1879  -1.6291   H         1 1      0.0000
    17 H17     -0.9845  -1.8447  -1.0851   H         1 1      0.0000
    18 CL      -2.9549  -1.0803  -0.6936   C.3       1 1      0.0000
    19 CL2     -3.4959  -1.5205  -2.0416   C.3       1 1      0.0000
    20 H20     -4.5776  -1.6318  -2.0054   H         1 1      0.0000
    21 H21     -3.2560  -0.7894  -2.8108   H         1 1      0.0000
    22 H22     -3.0665  -2.4758  -2.3362   H         1 1      0.0000
    23 OL2     -0.9742  -1.2101   1.5835   O.3       1 1      0.0000
    24 H24     -1.5580  -0.7380   2.2272   H         1 1      0.0000
    25 N25     -3.2596  -2.0986   0.2770   N.3       1 1      0.0000
    26 H26     -2.8663  -1.7912   1.1666   H         1 1      0.0000
    27 C27     -4.6743  -2.3926   0.5119   C.3       1 1      0.0000
    28 H28     -5.1512  -2.7464  -0.3998   H         1 1      0.0000
    29 H29     -4.7872  -3.1611   1.2737   H         1 1      0.0000
    30 H30     -5.2026  -1.5026   0.8473   H         1 1      0.0000
    31 OL1     -3.5702   0.1626  -0.3766   O.3       1 1      0.0000
    32 H32     -4.5520   0.0464  -0.3516   H         1 1      0.0000
    33 CL4     -1.1181   1.0870   0.8076   C.2       1 1      0.0000
    34 C34     -1.6998   3.2016  -0.0962   C.3       1 1      0.0000
    35 H35     -2.2420   3.5701  -0.9757   H         1 1      0.0000
    36 H36     -2.3668   3.2934   0.7699   H         1 1      0.0000
    37 OL3     -1.2385   1.4993   1.9283   O.2       1 1      0.0000
    38 OL4     -1.3125   1.8091  -0.2892   O.3       1 1      0.0000
    39 C39     -0.4704   3.9974   0.1179   C.3       1 1      0.0000
    40 H40      0.1930   3.9209  -0.7411   H         1 1      0.0000
    41 H41     -0.7120   5.0477   0.2671   H         1 1      0.0000
    42 H42      0.0688   3.6457   0.9950   H         1 1      0.0000
@<TRIPOS>BOND
     1     1     2   ar
     2     1     6   ar
     3     1    11    1
     4     2     3   ar
     5     2     7    1
     6     3     4   ar
     7     3     8    1
     8     4     5   ar
     9     4    14    1
    10     5     6   ar
    11     5     9    1
    12     6    10    1
    13    11    12    2
    14    11    13    2
    15    14    15    1
    16    14    23    1
    17    14    33    1
    18    15    16    1
    19    15    17    1
    20    15    18    1
    21    18    19    1
    22    18    25    1
    23    18    31    1
    24    19    20    1
    25    19    21    1
    26    19    22    1
    27    23    24    1
    28    25    26    1
    29    25    27    1
    30    27    28    1
    31    27    29    1
    32    27    30    1
    33    31    32    1
    34    33    37    2
    35    33    38    1
    36    34    35    1
    37    34    36    1
    38    34    38    1
    39    34    39    1
    40    39    40    1
    41    39    41    1
    42    39    42    1
@<TRIPOS>SUBSTRUCTURE
     1 1           1 GROUP             0 ****  ****    0  
@<TRIPOS>MOLECULE
Molecule Name_00101
    42    42     1     0     0
SMALL
NO_CHARGES
****
Generated from the CSD

@<TRIPOS>ATOM
     1 C1       3.4380  -0.3393  -0.1392   C.ar      1 1      0.0000
     2 C2       2.7364   0.8084  -0.4341   C.ar      1 1      0.0000
     3 C3       1.3703   0.8222  -0.2186   C.ar      1 1      0.0000
     4 C4       0.7037  -0.2906   0.2819   C.ar      1 1      0.0000
     5 C5       1.4517  -1.4270   0.5691   C.ar      1 1      0.0000
     6 C6       2.8186  -1.4628   0.3615   C.ar      1 1      0.0000
     7 H7       3.2444   1.6830  -0.8269   H         1 1      0.0000
     8 H8       0.8117   1.7237  -0.4460   H         1 1      0.0000
     9 H9       0.9567  -2.3072   0.9656   H         1 1      0.0000
    10 H10      3.3905  -2.3565   0.5882   H         1 1      0.0000
    11 N11      4.8882  -0.3660  -0.3650   N.pl3     1 1      0.0000
    12 O12      5.4961  -1.3910  -0.0987   O.2       1 1      0.0000
    13 O13      5.4227   0.6381  -0.8093   O.2       1 1      0.0000
    14 CL3     -0.8089  -0.2715   0.5073   C.3       1 1      0.0000
    15 CL1     -1.5600  -0.7840  -0.7542   C.3       1 1      0.0000
    16 H16     -1.3410  -0.1100  -1.5911   H         1 1      0.0000
    17 H17     -1.1524  -1.7665  -1.0226   H         1 1      0.0000
    18 CL      -3.0875  -0.9191  -0.6253   C.3       1 1      0.0000
    19 CL2     -3.6586  -1.3591  -1.9609   C.3       1 1      0.0000
    20 H20     -4.7394  -1.4689  -1.9009   H         1 1      0.0000
    21 H21     -3.4346  -0.6286  -2.7355   H         1 1      0.0000
    22 H22     -3.2371  -2.3151  -2.2645   H         1 1      0.0000
    23 OL2     -1.0910  -1.0905   1.6352   O.3       1 1      0.0000
    24 H24     -2.0610  -1.0643   1.8260   H         1 1      0.0000
    25 N25     -3.4221  -1.9092   0.3645   N.3       1 1      0.0000
    26 H26     -4.4400  -1.9470   0.4176   H         1 1      0.0000
    27 C27     -2.9537  -3.2753   0.1245   C.3       1 1      0.0000
    28 H28     -1.8682  -3.3046   0.0575   H         1 1      0.0000
    29 H29     -3.2614  -3.9360   0.9323   H         1 1      0.0000
    30 H30     -3.3614  -3.6649  -0.8059   H         1 1      0.0000
    31 OL1     -3.6506   0.3518  -0.3228   O.3       1 1      0.0000
    32 H32     -4.6345   0.2701  -0.2651   H         1 1      0.0000
    33 CL4     -1.1526   1.1979   0.8234   C.2       1 1      0.0000
    34 C34     -1.6600   3.3191  -0.1091   C.3       1 1      0.0000
    35 H35     -2.1961   3.6946  -0.9894   H         1 1      0.0000
    36 H36     -2.3144   3.4508   0.7615   H         1 1      0.0000
    37 OL3     -1.2457   1.6323   1.9383   O.2       1 1      0.0000
    38 OL4     -1.3294   1.9095  -0.2831   O.3       1 1      0.0000
    39 C39     -0.3984   4.0693   0.0806   C.3       1 1      0.0000
    40 H40      0.2529   3.9532  -0.7831   H         1 1      0.0000
    41 H41     -0.5972   5.1305   0.2150   H         1 1      0.0000
    42 H42      0.1353   3.7107   0.9583   H         1 1      0.0000
@<TRIPOS>BOND
     1     1     2   ar
     2     1     6   ar
     3     1    11    1
     4     2     3   ar
     5     2     7    1
     6     3     4   ar
     7     3     8    1
     8     4     5   ar
     9     4    14    1
    10     5     6   ar
    11     5     9    1
    12     6    10    1
    13    11    12    2
    14    11    13    2
    15    14    15    1
    16    14    23    1
    17    14    33    1
    18    15    16    1
    19    15    17    1
    20    15    18    1
    21    18    19    1
    22    18    25    1
    23    18    31    1
    24    19    20    1
    25    19    21    1
    26    19    22    1
    27    23    24    1
    28    25    26    1
    29    25    27    1
    30    27    28    1
    31    27    29    1
    32    27    30    1
    33    31    32    1
    34    33    37    2
    35    33    38    1
    36    34    35    1
    37    34    36    1
    38    34    38    1
    39    34    39    1
    40    39    40    1
    41    39    41    1
    42    39    42    1
@<TRIPOS>SUBSTRUCTURE
     1 1           1 GROUP             0 ****  ****    0  
@<TRIPOS>MOLECULE
Molecule Name_00102
    42    42     1     0     0
SMALL
NO_CHARGES
****
Generated from the CSD

@<TRIPOS>ATOM
     1 C1       3.6690  -0.3837  -0.1261   C.ar      1 1      0.0000
     2 C2       2.9460   0.7636  -0.3657   C.ar      1 1      0.0000
     3 C3       1.5775   0.7366  -0.1671   C.ar      1 1      0.0000
     4 C4       0.9296  -0.4163   0.2624   C.ar      1 1      0.0000
     5 C5       1.6988  -1.5508   0.4957   C.ar      1 1      0.0000
     6 C6       3.0685  -1.5462   0.3037   C.ar      1 1      0.0000
     7 H7       3.4393   1.6693  -0.7029   H         1 1      0.0000
     8 H8       1.0021   1.6372  -0.3512   H         1 1      0.0000
     9 H9       1.2187  -2.4620   0.8364   H         1 1      0.0000
    10 H10      3.6571  -2.4389   0.4878   H         1 1      0.0000
    11 N11      5.1219  -0.3671  -0.3345   N.pl3     1 1      0.0000
    12 O12      5.7489  -1.3923  -0.1177   O.2       1 1      0.0000
    13 O13      5.6395   0.6712  -0.7156   O.2       1 1      0.0000
    14 CL3     -0.5855  -0.4417   0.4693   C.3       1 1      0.0000
    15 CL1     -1.3107  -0.8991  -0.8280   C.3       1 1      0.0000
    16 H16     -1.1008  -0.1725  -1.6222   H         1 1      0.0000
    17 H17     -0.8754  -1.8539  -1.1479   H         1 1      0.0000
    18 CL      -2.8354  -1.0796  -0.7245   C.3       1 1      0.0000
    19 CL2     -3.1344  -2.2025   0.2519   C.3       1 1      0.0000
    20 H20     -4.0763  -2.6878   0.0049   H         1 1      0.0000
    21 H21     -2.3487  -2.9547   0.2269   H         1 1      0.0000
    22 H22     -3.2060  -1.8209   1.2683   H         1 1      0.0000
    23 OL2     -0.8626  -1.3279   1.5465   O.3       1 1      0.0000
    24 H24     -1.6080  -0.9661   2.0864   H         1 1      0.0000
    25 N25     -3.4518   0.1268  -0.2380   N.3       1 1      0.0000
    26 H26     -3.2271   0.8667  -0.9031   H         1 1      0.0000
    27 C27     -4.9076   0.1153  -0.0843   C.3       1 1      0.0000
    28 H28     -5.2152  -0.6568   0.6178   H         1 1      0.0000
    29 H29     -5.2637   1.0735   0.2883   H         1 1      0.0000
    30 H30     -5.3946  -0.0799  -1.0374   H         1 1      0.0000
    31 OL1     -3.3520  -1.4717  -1.9906   O.3       1 1      0.0000
    32 H32     -4.3268  -1.6214  -1.9158   H         1 1      0.0000
    33 CL4     -0.9648   1.0003   0.8618   C.2       1 1      0.0000
    34 C34     -1.4994   3.1609   0.0419   C.3       1 1      0.0000
    35 H35     -0.9827   3.5347   0.9344   H         1 1      0.0000
    36 H36     -1.1978   3.7884  -0.8059   H         1 1      0.0000
    37 OL3     -1.0861   1.3684   1.9977   O.2       1 1      0.0000
    38 OL4     -1.1370   1.7703  -0.2056   O.3       1 1      0.0000
    39 C39     -2.9655   3.2290   0.2330   C.3       1 1      0.0000
    40 H40     -3.2747   2.6063   1.0699   H         1 1      0.0000
    41 H41     -3.2810   4.2503   0.4358   H         1 1      0.0000
    42 H42     -3.4870   2.8836  -0.6573   H         1 1      0.0000
@<TRIPOS>BOND
     1     1     2   ar
     2     1     6   ar
     3     1    11    1
     4     2     3   ar
     5     2     7    1
     6     3     4   ar
     7     3     8    1
     8     4     5   ar
     9     4    14    1
    10     5     6   ar
    11     5     9    1
    12     6    10    1
    13    11    12    2
    14    11    13    2
    15    14    15    1
    16    14    23    1
    17    14    33    1
    18    15    16    1
    19    15    17    1
    20    15    18    1
    21    18    19    1
    22    18    25    1
    23    18    31    1
    24    19    20    1
    25    19    21    1
    26    19    22    1
    27    23    24    1
    28    25    26    1
    29    25    27    1
    30    27    28    1
    31    27    29    1
    32    27    30    1
    33    31    32    1
    34    33    37    2
    35    33    38    1
    36    34    35    1
    37    34    36    1
    38    34    38    1
    39    34    39    1
    40    39    40    1
    41    39    41    1
    42    39    42    1
@<TRIPOS>SUBSTRUCTURE
     1 1           1 GROUP             0 ****  ****    0  
@<TRIPOS>MOLECULE
Molecule Name_00103
    42    42     1     0     0
SMALL
NO_CHARGES
****
Generated from the CSD

@<TRIPOS>ATOM
     1 C1       3.5616  -0.2358  -0.1491   C.ar      1 1      0.0000
     2 C2       2.7775   0.8687  -0.3983   C.ar      1 1      0.0000
     3 C3       1.4137   0.7723  -0.1893   C.ar      1 1      0.0000
     4 C4       0.8304  -0.4071   0.2601   C.ar      1 1      0.0000
     5 C5       1.6599  -1.4964   0.5025   C.ar      1 1      0.0000
     6 C6       3.0260  -1.4223   0.3003   C.ar      1 1      0.0000
     7 H7       3.2201   1.7944  -0.7510   H         1 1      0.0000
     8 H8       0.7904   1.6389  -0.3809   H         1 1      0.0000
     9 H9       1.2307  -2.4269   0.8587   H         1 1      0.0000
    10 H10      3.6621  -2.2802   0.4917   H         1 1      0.0000
    11 N11      5.0102  -0.1455  -0.3685   N.pl3     1 1      0.0000
    12 O12      5.6917  -1.1334  -0.1429   O.2       1 1      0.0000
    13 O13      5.4697   0.9134  -0.7669   O.2       1 1      0.0000
    14 CL3     -0.6799  -0.5094   0.4785   C.3       1 1      0.0000
    15 CL1     -1.3886  -1.0218  -0.8073   C.3       1 1      0.0000
    16 H16     -1.2226  -0.2960  -1.6125   H         1 1      0.0000
    17 H17     -0.9058  -1.9567  -1.1178   H         1 1      0.0000
    18 CL      -2.9010  -1.2809  -0.6901   C.3       1 1      0.0000
    19 CL2     -3.1338  -2.4046   0.3032   C.3       1 1      0.0000
    20 H20     -4.0472  -2.9460   0.0659   H         1 1      0.0000
    21 H21     -2.3069  -3.1114   0.2866   H         1 1      0.0000
    22 H22     -3.2248  -2.0130   1.3142   H         1 1      0.0000
    23 OL2     -0.9026  -1.3944   1.5692   O.3       1 1      0.0000
    24 H24     -1.6376  -1.0449   2.1312   H         1 1      0.0000
    25 N25     -3.5769  -0.1022  -0.2150   N.3       1 1      0.0000
    26 H26     -3.3959   0.6395  -0.8914   H         1 1      0.0000
    27 C27     -5.0290  -0.1881  -0.0503   C.3       1 1      0.0000
    28 H28     -5.2908  -0.9658   0.6641   H         1 1      0.0000
    29 H29     -5.4325   0.7550   0.3122   H         1 1      0.0000
    30 H30     -5.5113  -0.4215  -0.9972   H         1 1      0.0000
    31 OL1     -3.4047  -1.7167  -1.9471   O.3       1 1      0.0000
    32 H32     -4.3697  -1.9165  -1.8632   H         1 1      0.0000
    33 CL4     -1.1320   0.9158   0.8549   C.2       1 1      0.0000
    34 C34     -1.7853   3.0340   0.0105   C.3       1 1      0.0000
    35 H35     -2.3405   3.4085  -0.8583   H         1 1      0.0000
    36 H36     -2.4541   3.0792   0.8789   H         1 1      0.0000
    37 OL3     -1.2649   1.2924   1.9866   O.2       1 1      0.0000
    38 OL4     -1.3517   1.6612  -0.2214   O.3       1 1      0.0000
    39 C39     -0.5831   3.8644   0.2466   C.3       1 1      0.0000
    40 H40      0.0816   3.8342  -0.6143   H         1 1      0.0000
    41 H41     -0.8596   4.9014   0.4251   H         1 1      0.0000
    42 H42     -0.0314   3.5067   1.1134   H         1 1      0.0000
@<TRIPOS>BOND
     1     1     2   ar
     2     1     6   ar
     3     1    11    1
     4     2     3   ar
     5     2     7    1
     6     3     4   ar
     7     3     8    1
     8     4     5   ar
     9     4    14    1
    10     5     6   ar
    11     5     9    1
    12     6    10    1
    13    11    12    2
    14    11    13    2
    15    14    15    1
    16    14    23    1
    17    14    33    1
    18    15    16    1
    19    15    17    1
    20    15    18    1
    21    18    19    1
    22    18    25    1
    23    18    31    1
    24    19    20    1
    25    19    21    1
    26    19    22    1
    27    23    24    1
    28    25    26    1
    29    25    27    1
    30    27    28    1
    31    27    29    1
    32    27    30    1
    33    31    32    1
    34    33    37    2
    35    33    38    1
    36    34    35    1
    37    34    36    1
    38    34    38    1
    39    34    39    1
    40    39    40    1
    41    39    41    1
    42    39    42    1
@<TRIPOS>SUBSTRUCTURE
     1 1           1 GROUP             0 ****  ****    0  
@<TRIPOS>MOLECULE
Molecule Name_00104
    42    42     1     0     0
SMALL
NO_CHARGES
****
Generated from the CSD

@<TRIPOS>ATOM
     1 C1       2.8217  -0.6124  -0.2366   C.ar      1 1      0.0000
     2 C2       2.2293  -0.9982   0.9453   C.ar      1 1      0.0000
     3 C3       0.9055  -0.6618   1.1622   C.ar      1 1      0.0000
     4 C4       0.1747   0.0523   0.2191   C.ar      1 1      0.0000
     5 C5       0.8113   0.4184  -0.9616   C.ar      1 1      0.0000
     6 C6       2.1342   0.0925  -1.1994   C.ar      1 1      0.0000
     7 H7       2.7891  -1.5542   1.6901   H         1 1      0.0000
     8 H8       0.4317  -0.9647   2.0895   H         1 1      0.0000
     9 H9       0.2621   0.9716  -1.7162   H         1 1      0.0000
    10 H10      2.6197   0.3857  -2.1243   H         1 1      0.0000
    11 N11      4.2267  -0.9629  -0.4772   N.pl3     1 1      0.0000
    12 O12      4.7376  -0.6137  -1.5299   O.2       1 1      0.0000
    13 O13      4.8226  -1.5883   0.3860   O.2       1 1      0.0000
    14 CL3     -1.2857   0.4301   0.4707   C.3       1 1      0.0000
    15 CL1     -2.2214  -0.2793  -0.5489   C.3       1 1      0.0000
    16 H16     -3.1782   0.2558  -0.5785   H         1 1      0.0000
    17 H17     -1.7756  -0.1884  -1.5471   H         1 1      0.0000
    18 CL      -2.5051  -1.7688  -0.2859   C.3       1 1      0.0000
    19 CL2     -3.4460  -2.2888  -1.3572   C.3       1 1      0.0000
    20 H20     -3.6150  -3.3568  -1.2368   H         1 1      0.0000
    21 H21     -4.4088  -1.7850  -1.3024   H         1 1      0.0000
    22 H22     -3.0316  -2.1208  -2.3491   H         1 1      0.0000
    23 OL2     -1.6087   0.0550   1.8039   O.3       1 1      0.0000
    24 H24     -2.5388   0.3242   2.0049   H         1 1      0.0000
    25 N25     -1.2842  -2.5295  -0.3400   N.3       1 1      0.0000
    26 H26     -1.5230  -3.4948  -0.1128   H         1 1      0.0000
    27 C27     -0.5706  -2.5531  -1.6180   C.3       1 1      0.0000
    28 H28     -0.4528  -1.5461  -2.0126   H         1 1      0.0000
    29 H29      0.4193  -2.9885  -1.4990   H         1 1      0.0000
    30 H30     -1.1145  -3.1434  -2.3525   H         1 1      0.0000
    31 OL1     -3.1688  -1.9100   0.9644   O.3       1 1      0.0000
    32 H32     -3.3739  -2.8646   1.1218   H         1 1      0.0000
    33 CL4     -1.3376   1.9644   0.3272   C.2       1 1      0.0000
    34 C34     -0.8661   4.0326   1.3886   C.3       1 1      0.0000
    35 H35     -1.7568   4.4057   0.8683   H         1 1      0.0000
    36 H36     -0.8883   4.4259   2.4125   H         1 1      0.0000
    37 OL3     -1.7550   2.5257  -0.6480   O.2       1 1      0.0000
    38 OL4     -0.8670   2.5745   1.4081   O.3       1 1      0.0000
    39 C39      0.3598   4.4844   0.6932   C.3       1 1      0.0000
    40 H40      0.3854   4.1077  -0.3272   H         1 1      0.0000
    41 H41      0.4032   5.5708   0.6547   H         1 1      0.0000
    42 H42      1.2492   4.1277   1.2085   H         1 1      0.0000
@<TRIPOS>BOND
     1     1     2   ar
     2     1     6   ar
     3     1    11    1
     4     2     3   ar
     5     2     7    1
     6     3     4   ar
     7     3     8    1
     8     4     5   ar
     9     4    14    1
    10     5     6   ar
    11     5     9    1
    12     6    10    1
    13    11    12    2
    14    11    13    2
    15    14    15    1
    16    14    23    1
    17    14    33    1
    18    15    16    1
    19    15    17    1
    20    15    18    1
    21    18    19    1
    22    18    25    1
    23    18    31    1
    24    19    20    1
    25    19    21    1
    26    19    22    1
    27    23    24    1
    28    25    26    1
    29    25    27    1
    30    27    28    1
    31    27    29    1
    32    27    30    1
    33    31    32    1
    34    33    37    2
    35    33    38    1
    36    34    35    1
    37    34    36    1
    38    34    38    1
    39    34    39    1
    40    39    40    1
    41    39    41    1
    42    39    42    1
@<TRIPOS>SUBSTRUCTURE
     1 1           1 GROUP             0 ****  ****    0  
@<TRIPOS>MOLECULE
Molecule Name_00105
    42    42     1     0     0
SMALL
NO_CHARGES
****
Generated from the CSD

@<TRIPOS>ATOM
     1 C1       2.9071  -0.7751  -0.2008   C.ar      1 1      0.0000
     2 C2       2.2780  -1.0600   0.9907   C.ar      1 1      0.0000
     3 C3       0.9704  -0.6439   1.1641   C.ar      1 1      0.0000
     4 C4       0.2920   0.0502   0.1684   C.ar      1 1      0.0000
     5 C5       0.9643   0.3133  -1.0199   C.ar      1 1      0.0000
     6 C6       2.2717  -0.0935  -1.2148   C.ar      1 1      0.0000
     7 H7       2.7968  -1.5993   1.7763   H         1 1      0.0000
     8 H8       0.4678  -0.8671   2.0988   H         1 1      0.0000
     9 H9       0.4560   0.8486  -1.8150   H         1 1      0.0000
    10 H10      2.7855   0.1196  -2.1464   H         1 1      0.0000
    11 N11      4.2953  -1.2108  -0.3956   N.pl3     1 1      0.0000
    12 O12      4.8393  -0.9506  -1.4575   O.2       1 1      0.0000
    13 O13      4.8448  -1.8141   0.5127   O.2       1 1      0.0000
    14 CL3     -1.1502   0.5166   0.3717   C.3       1 1      0.0000
    15 CL1     -2.1065  -0.2025  -0.6217   C.3       1 1      0.0000
    16 H16     -3.0334   0.3784  -0.6992   H         1 1      0.0000
    17 H17     -1.6418  -0.1933  -1.6154   H         1 1      0.0000
    18 CL      -2.4715  -1.6575  -0.2781   C.3       1 1      0.0000
    19 CL2     -3.4224  -2.1904  -1.3341   C.3       1 1      0.0000
    20 H20     -3.6487  -3.2395  -1.1553   H         1 1      0.0000
    21 H21     -4.3582  -1.6356  -1.3257   H         1 1      0.0000
    22 H22     -2.9851  -2.1024  -2.3265   H         1 1      0.0000
    23 OL2     -1.5120   0.2374   1.7184   O.3       1 1      0.0000
    24 H24     -2.4297   0.5653   1.8869   H         1 1      0.0000
    25 N25     -1.2914  -2.4816  -0.2663   N.3       1 1      0.0000
    26 H26     -1.5836  -3.4184   0.0120   H         1 1      0.0000
    27 C27     -0.5612  -2.6168  -1.5279   C.3       1 1      0.0000
    28 H28     -0.3850  -1.6421  -1.9779   H         1 1      0.0000
    29 H29      0.4027  -3.0948  -1.3663   H         1 1      0.0000
    30 H30     -1.1242  -3.2205  -2.2366   H         1 1      0.0000
    31 OL1     -3.1601  -1.6908   0.9663   O.3       1 1      0.0000
    32 H32     -3.4172  -2.6227   1.1748   H         1 1      0.0000
    33 CL4     -1.1197   2.0404   0.1388   C.2       1 1      0.0000
    34 C34     -0.5564   4.1404   1.0871   C.3       1 1      0.0000
    35 H35      0.2173   4.5283   1.7611   H         1 1      0.0000
    36 H36     -0.2866   4.4340   0.0651   H         1 1      0.0000
    37 OL3     -1.4927   2.5642  -0.8745   O.2       1 1      0.0000
    38 OL4     -0.6339   2.6880   1.1909   O.3       1 1      0.0000
    39 C39     -1.8779   4.7003   1.4485   C.3       1 1      0.0000
    40 H40     -2.1493   4.4231   2.4650   H         1 1      0.0000
    41 H41     -1.8671   5.7864   1.3849   H         1 1      0.0000
    42 H42     -2.6504   4.3293   0.7782   H         1 1      0.0000
@<TRIPOS>BOND
     1     1     2   ar
     2     1     6   ar
     3     1    11    1
     4     2     3   ar
     5     2     7    1
     6     3     4   ar
     7     3     8    1
     8     4     5   ar
     9     4    14    1
    10     5     6   ar
    11     5     9    1
    12     6    10    1
    13    11    12    2
    14    11    13    2
    15    14    15    1
    16    14    23    1
    17    14    33    1
    18    15    16    1
    19    15    17    1
    20    15    18    1
    21    18    19    1
    22    18    25    1
    23    18    31    1
    24    19    20    1
    25    19    21    1
    26    19    22    1
    27    23    24    1
    28    25    26    1
    29    25    27    1
    30    27    28    1
    31    27    29    1
    32    27    30    1
    33    31    32    1
    34    33    37    2
    35    33    38    1
    36    34    35    1
    37    34    36    1
    38    34    38    1
    39    34    39    1
    40    39    40    1
    41    39    41    1
    42    39    42    1
@<TRIPOS>SUBSTRUCTURE
     1 1           1 GROUP             0 ****  ****    0  
@<TRIPOS>MOLECULE
Molecule Name_00106
    42    42     1     0     0
SMALL
NO_CHARGES
****
Generated from the CSD

@<TRIPOS>ATOM
     1 C1       3.4848  -0.2582  -0.1222   C.ar      1 1      0.0000
     2 C2       2.9448  -0.6203   1.0918   C.ar      1 1      0.0000
     3 C3       1.5708  -0.5778   1.2436   C.ar      1 1      0.0000
     4 C4       0.7383  -0.1781   0.2041   C.ar      1 1      0.0000
     5 C5       1.3257   0.1755  -1.0056   C.ar      1 1      0.0000
     6 C6       2.6973   0.1402  -1.1794   C.ar      1 1      0.0000
     7 H7       3.5836  -0.9322   1.9116   H         1 1      0.0000
     8 H8       1.1384  -0.8641   2.1961   H         1 1      0.0000
     9 H9       0.6983   0.4859  -1.8345   H         1 1      0.0000
    10 H10      3.1432   0.4203  -2.1281   H         1 1      0.0000
    11 N11      4.9420  -0.2983  -0.2945   N.pl3     1 1      0.0000
    12 O12      5.4054   0.0257  -1.3768   O.2       1 1      0.0000
    13 O13      5.6265  -0.6539   0.6522   O.2       1 1      0.0000
    14 CL3     -0.7796  -0.1232   0.3828   C.3       1 1      0.0000
    15 CL1     -1.4822  -1.1396  -0.5615   C.3       1 1      0.0000
    16 H16     -1.4785  -0.7329  -1.5800   H         1 1      0.0000
    17 H17     -0.8842  -2.0591  -0.5845   H         1 1      0.0000
    18 CL      -2.9278  -1.5186  -0.1942   C.3       1 1      0.0000
    19 CL2     -3.7645  -0.2548  -0.1153   C.3       1 1      0.0000
    20 H20     -4.8179  -0.4968   0.0092   H         1 1      0.0000
    21 H21     -3.4560   0.3600   0.7277   H         1 1      0.0000
    22 H22     -3.6574   0.3359  -1.0227   H         1 1      0.0000
    23 OL2     -1.0679  -0.4114   1.7452   O.3       1 1      0.0000
    24 H24     -2.0374  -0.3011   1.9065   H         1 1      0.0000
    25 N25     -3.4920  -2.3796  -1.2004   N.3       1 1      0.0000
    26 H26     -2.8950  -3.2046  -1.2571   H         1 1      0.0000
    27 C27     -4.8595  -2.8535  -0.9803   C.3       1 1      0.0000
    28 H28     -5.5639  -2.0247  -1.0069   H         1 1      0.0000
    29 H29     -5.1482  -3.5683  -1.7481   H         1 1      0.0000
    30 H30     -4.9473  -3.3420  -0.0121   H         1 1      0.0000
    31 OL1     -2.9459  -2.1188   1.0954   O.3       1 1      0.0000
    32 H32     -3.8806  -2.3111   1.3553   H         1 1      0.0000
    33 CL4     -1.1734   1.3313   0.0566   C.2       1 1      0.0000
    34 C34     -1.2462   3.5556   0.8773   C.3       1 1      0.0000
    35 H35     -2.1691   3.6512   0.2921   H         1 1      0.0000
    36 H36     -1.4134   4.0422   1.8461   H         1 1      0.0000
    37 OL3     -1.6547   1.6696  -0.9895   O.2       1 1      0.0000
    38 OL4     -0.9144   2.1488   1.0699   O.3       1 1      0.0000
    39 C39     -0.1204   4.2026   0.1670   C.3       1 1      0.0000
    40 H40      0.0461   3.7333  -0.8003   H         1 1      0.0000
    41 H41     -0.3249   5.2582   0.0008   H         1 1      0.0000
    42 H42      0.7977   4.1222   0.7452   H         1 1      0.0000
@<TRIPOS>BOND
     1     1     2   ar
     2     1     6   ar
     3     1    11    1
     4     2     3   ar
     5     2     7    1
     6     3     4   ar
     7     3     8    1
     8     4     5   ar
     9     4    14    1
    10     5     6   ar
    11     5     9    1
    12     6    10    1
    13    11    12    2
    14    11    13    2
    15    14    15    1
    16    14    23    1
    17    14    33    1
    18    15    16    1
    19    15    17    1
    20    15    18    1
    21    18    19    1
    22    18    25    1
    23    18    31    1
    24    19    20    1
    25    19    21    1
    26    19    22    1
    27    23    24    1
    28    25    26    1
    29    25    27    1
    30    27    28    1
    31    27    29    1
    32    27    30    1
    33    31    32    1
    34    33    37    2
    35    33    38    1
    36    34    35    1
    37    34    36    1
    38    34    38    1
    39    34    39    1
    40    39    40    1
    41    39    41    1
    42    39    42    1
@<TRIPOS>SUBSTRUCTURE
     1 1           1 GROUP             0 ****  ****    0  
@<TRIPOS>MOLECULE
Molecule Name_00107
    42    42     1     0     0
SMALL
NO_CHARGES
****
Generated from the CSD

@<TRIPOS>ATOM
     1 C1       3.4237  -0.3250  -0.1016   C.ar      1 1      0.0000
     2 C2       2.9111  -0.5812   1.1507   C.ar      1 1      0.0000
     3 C3       1.5410  -0.5196   1.3297   C.ar      1 1      0.0000
     4 C4       0.6857  -0.2047   0.2796   C.ar      1 1      0.0000
     5 C5       1.2459   0.0432  -0.9686   C.ar      1 1      0.0000
     6 C6       2.6130  -0.0131  -1.1703   C.ar      1 1      0.0000
     7 H7       3.5678  -0.8262   1.9789   H         1 1      0.0000
     8 H8       1.1301  -0.7228   2.3126   H         1 1      0.0000
     9 H9       0.6003   0.2858  -1.8061   H         1 1      0.0000
    10 H10      3.0375   0.1842  -2.1491   H         1 1      0.0000
    11 N11      4.8764  -0.3863  -0.3032   N.pl3     1 1      0.0000
    12 O12      5.3155  -0.1566  -1.4193   O.2       1 1      0.0000
    13 O13      5.5817  -0.6643   0.6541   O.2       1 1      0.0000
    14 CL3     -0.8274  -0.1278   0.4878   C.3       1 1      0.0000
    15 CL1     -1.5546  -1.2166  -0.3513   C.3       1 1      0.0000
    16 H16     -1.5740  -0.8967  -1.4001   H         1 1      0.0000
    17 H17     -0.9596  -2.1374  -0.3111   H         1 1      0.0000
    18 CL      -2.9920  -1.5571   0.0801   C.3       1 1      0.0000
    19 CL2     -3.8243  -0.2880   0.0694   C.3       1 1      0.0000
    20 H20     -4.8763  -0.5153   0.2287   H         1 1      0.0000
    21 H21     -3.5016   0.3914   0.8555   H         1 1      0.0000
    22 H22     -3.7295   0.2274  -0.8841   H         1 1      0.0000
    23 OL2     -1.0848  -0.2992   1.8759   O.3       1 1      0.0000
    24 H24     -2.0498  -0.1698   2.0497   H         1 1      0.0000
    25 N25     -3.5810  -2.4990  -0.8354   N.3       1 1      0.0000
    26 H26     -4.5213  -2.6992  -0.4946   H         1 1      0.0000
    27 C27     -3.7109  -2.0782  -2.2315   C.3       1 1      0.0000
    28 H28     -2.7341  -1.8762  -2.6659   H         1 1      0.0000
    29 H29     -4.1920  -2.8531  -2.8247   H         1 1      0.0000
    30 H30     -4.3093  -1.1727  -2.3073   H         1 1      0.0000
    31 OL1     -2.9815  -2.0445   1.4165   O.3       1 1      0.0000
    32 H32     -3.9080  -2.2393   1.7026   H         1 1      0.0000
    33 CL4     -1.2246   1.2960   0.0496   C.2       1 1      0.0000
    34 C34     -1.2740   3.5815   0.6826   C.3       1 1      0.0000
    35 H35     -2.2092   3.6317   0.1114   H         1 1      0.0000
    36 H36     -1.4189   4.1481   1.6106   H         1 1      0.0000
    37 OL3     -1.7277   1.5477  -1.0106   O.2       1 1      0.0000
    38 OL4     -0.9416   2.1943   0.9851   O.3       1 1      0.0000
    39 C39     -0.1623   4.1619  -0.1034   C.3       1 1      0.0000
    40 H40     -0.0181   3.6126  -1.0314   H         1 1      0.0000
    41 H41     -0.3678   5.2008  -0.3529   H         1 1      0.0000
    42 H42      0.7679   4.1262   0.4597   H         1 1      0.0000
@<TRIPOS>BOND
     1     1     2   ar
     2     1     6   ar
     3     1    11    1
     4     2     3   ar
     5     2     7    1
     6     3     4   ar
     7     3     8    1
     8     4     5   ar
     9     4    14    1
    10     5     6   ar
    11     5     9    1
    12     6    10    1
    13    11    12    2
    14    11    13    2
    15    14    15    1
    16    14    23    1
    17    14    33    1
    18    15    16    1
    19    15    17    1
    20    15    18    1
    21    18    19    1
    22    18    25    1
    23    18    31    1
    24    19    20    1
    25    19    21    1
    26    19    22    1
    27    23    24    1
    28    25    26    1
    29    25    27    1
    30    27    28    1
    31    27    29    1
    32    27    30    1
    33    31    32    1
    34    33    37    2
    35    33    38    1
    36    34    35    1
    37    34    36    1
    38    34    38    1
    39    34    39    1
    40    39    40    1
    41    39    41    1
    42    39    42    1
@<TRIPOS>SUBSTRUCTURE
     1 1           1 GROUP             0 ****  ****    0  
@<TRIPOS>MOLECULE
Molecule Name_00108
    42    42     1     0     0
SMALL
NO_CHARGES
****
Generated from the CSD

@<TRIPOS>ATOM
     1 C1       3.3799  -0.3485  -0.1234   C.ar      1 1      0.0000
     2 C2       2.8371  -0.6689   1.1010   C.ar      1 1      0.0000
     3 C3       1.4670  -0.5718   1.2629   C.ar      1 1      0.0000
     4 C4       0.6412  -0.1588   0.2232   C.ar      1 1      0.0000
     5 C5       1.2311   0.1515  -0.9971   C.ar      1 1      0.0000
     6 C6       2.5989   0.0613  -1.1812   C.ar      1 1      0.0000
     7 H7       3.4706  -0.9908   1.9210   H         1 1      0.0000
     8 H8       1.0323  -0.8252   2.2237   H         1 1      0.0000
     9 H9       0.6088   0.4712  -1.8262   H         1 1      0.0000
    10 H10      3.0469   0.3080  -2.1381   H         1 1      0.0000
    11 N11      4.8330  -0.4467  -0.3065   N.pl3     1 1      0.0000
    12 O12      5.2989  -0.1591  -1.3980   O.2       1 1      0.0000
    13 O13      5.5117  -0.8116   0.6407   O.2       1 1      0.0000
    14 CL3     -0.8719  -0.0434   0.4130   C.3       1 1      0.0000
    15 CL1     -1.6205  -1.0485  -0.5077   C.3       1 1      0.0000
    16 H16     -1.6104  -0.6596  -1.5331   H         1 1      0.0000
    17 H17     -1.0577  -1.9901  -0.5196   H         1 1      0.0000
    18 CL      -3.0760  -1.3663  -0.1223   C.3       1 1      0.0000
    19 CL2     -3.8642  -0.0708  -0.0599   C.3       1 1      0.0000
    20 H20     -4.9259  -0.2712   0.0682   H         1 1      0.0000
    21 H21     -3.5320   0.5429   0.7748   H         1 1      0.0000
    22 H22     -3.7356   0.5033  -0.9751   H         1 1      0.0000
    23 OL2     -1.1591  -0.2971   1.7826   O.3       1 1      0.0000
    24 H24     -2.1222  -0.1467   1.9497   H         1 1      0.0000
    25 N25     -3.6806  -2.2235  -1.1080   N.3       1 1      0.0000
    26 H26     -3.6645  -1.7182  -1.9939   H         1 1      0.0000
    27 C27     -3.0444  -3.5209  -1.3422   C.3       1 1      0.0000
    28 H28     -3.0297  -4.1135  -0.4299   H         1 1      0.0000
    29 H29     -3.5827  -4.0828  -2.1027   H         1 1      0.0000
    30 H30     -2.0179  -3.3919  -1.6792   H         1 1      0.0000
    31 OL1     -3.1055  -1.9422   1.1782   O.3       1 1      0.0000
    32 H32     -4.0430  -2.1230   1.4364   H         1 1      0.0000
    33 CL4     -1.2133   1.4192   0.0647   C.2       1 1      0.0000
    34 C34     -1.1973   3.6581   0.8479   C.3       1 1      0.0000
    35 H35     -2.1201   3.7784   0.2669   H         1 1      0.0000
    36 H36     -1.3396   4.1668   1.8094   H         1 1      0.0000
    37 OL3     -1.6888   1.7577  -0.9840   O.2       1 1      0.0000
    38 OL4     -0.9170   2.2433   1.0623   O.3       1 1      0.0000
    39 C39     -0.0531   4.2505   0.1197   C.3       1 1      0.0000
    40 H40      0.0891   3.7591  -0.8405   H         1 1      0.0000
    41 H41     -0.2191   5.3101  -0.0630   H         1 1      0.0000
    42 H42      0.8653   4.1454   0.6935   H         1 1      0.0000
@<TRIPOS>BOND
     1     1     2   ar
     2     1     6   ar
     3     1    11    1
     4     2     3   ar
     5     2     7    1
     6     3     4   ar
     7     3     8    1
     8     4     5   ar
     9     4    14    1
    10     5     6   ar
    11     5     9    1
    12     6    10    1
    13    11    12    2
    14    11    13    2
    15    14    15    1
    16    14    23    1
    17    14    33    1
    18    15    16    1
    19    15    17    1
    20    15    18    1
    21    18    19    1
    22    18    25    1
    23    18    31    1
    24    19    20    1
    25    19    21    1
    26    19    22    1
    27    23    24    1
    28    25    26    1
    29    25    27    1
    30    27    28    1
    31    27    29    1
    32    27    30    1
    33    31    32    1
    34    33    37    2
    35    33    38    1
    36    34    35    1
    37    34    36    1
    38    34    38    1
    39    34    39    1
    40    39    40    1
    41    39    41    1
    42    39    42    1
@<TRIPOS>SUBSTRUCTURE
     1 1           1 GROUP             0 ****  ****    0  
@<TRIPOS>MOLECULE
Molecule Name_00109
    42    42     1     0     0
SMALL
NO_CHARGES
****
Generated from the CSD

@<TRIPOS>ATOM
     1 C1       3.5886  -0.4108  -0.0961   C.ar      1 1      0.0000
     2 C2       3.0162  -0.6660   1.1302   C.ar      1 1      0.0000
     3 C3       1.6437  -0.5501   1.2563   C.ar      1 1      0.0000
     4 C4       0.8449  -0.1824   0.1792   C.ar      1 1      0.0000
     5 C5       1.4643   0.0624  -1.0413   C.ar      1 1      0.0000
     6 C6       2.8349  -0.0476  -1.1900   C.ar      1 1      0.0000
     7 H7       3.6285  -0.9519   1.9790   H         1 1      0.0000
     8 H8       1.1857  -0.7522   2.2183   H         1 1      0.0000
     9 H9       0.8633   0.3457  -1.8990   H         1 1      0.0000
    10 H10      3.3061   0.1479  -2.1476   H         1 1      0.0000
    11 N11      5.0445  -0.5295  -0.2415   N.pl3     1 1      0.0000
    12 O12      5.5370  -0.2999  -1.3351   O.2       1 1      0.0000
    13 O13      5.6989  -0.8525   0.7376   O.2       1 1      0.0000
    14 CL3     -0.6710  -0.0458   0.3291   C.3       1 1      0.0000
    15 CL1     -1.4081  -1.0892  -0.5576   C.3       1 1      0.0000
    16 H16     -1.3718  -0.7517  -1.6004   H         1 1      0.0000
    17 H17     -0.8539  -2.0347  -0.5102   H         1 1      0.0000
    18 CL      -2.8747  -1.3758  -0.1899   C.3       1 1      0.0000
    19 CL2     -3.6519  -0.0722  -0.2080   C.3       1 1      0.0000
    20 H20     -4.7171  -0.2565  -0.0850   H         1 1      0.0000
    21 H21     -3.3259   0.5823   0.5976   H         1 1      0.0000
    22 H22     -3.5051   0.4512  -1.1504   H         1 1      0.0000
    23 OL2     -0.9906  -0.2291   1.7027   O.3       1 1      0.0000
    24 H24     -1.9559  -0.0637   1.8404   H         1 1      0.0000
    25 N25     -3.4655  -2.2747  -1.1463   N.3       1 1      0.0000
    26 H26     -2.9074  -3.1285  -1.1388   H         1 1      0.0000
    27 C27     -4.8567  -2.6693  -0.9179   C.3       1 1      0.0000
    28 H28     -5.5208  -1.8125  -1.0104   H         1 1      0.0000
    29 H29     -5.1685  -3.4195  -1.6415   H         1 1      0.0000
    30 H30     -4.9802  -3.0878   0.0788   H         1 1      0.0000
    31 OL1     -2.9383  -1.8874   1.1360   O.3       1 1      0.0000
    32 H32     -3.8843  -2.0186   1.3927   H         1 1      0.0000
    33 CL4     -0.9914   1.4005  -0.0985   C.2       1 1      0.0000
    34 C34     -0.9701   3.6754   0.5727   C.3       1 1      0.0000
    35 H35     -0.3327   4.3169   1.1937   H         1 1      0.0000
    36 H36     -0.7421   3.8951  -0.4777   H         1 1      0.0000
    37 OL3     -1.4423   1.6903  -1.1723   O.2       1 1      0.0000
    38 OL4     -0.7076   2.2708   0.8629   O.3       1 1      0.0000
    39 C39     -2.3977   3.9462   0.8540   C.3       1 1      0.0000
    40 H40     -2.6309   3.7413   1.8968   H         1 1      0.0000
    41 H41     -2.6402   4.9871   0.6507   H         1 1      0.0000
    42 H42     -3.0381   3.3218   0.2345   H         1 1      0.0000
@<TRIPOS>BOND
     1     1     2   ar
     2     1     6   ar
     3     1    11    1
     4     2     3   ar
     5     2     7    1
     6     3     4   ar
     7     3     8    1
     8     4     5   ar
     9     4    14    1
    10     5     6   ar
    11     5     9    1
    12     6    10    1
    13    11    12    2
    14    11    13    2
    15    14    15    1
    16    14    23    1
    17    14    33    1
    18    15    16    1
    19    15    17    1
    20    15    18    1
    21    18    19    1
    22    18    25    1
    23    18    31    1
    24    19    20    1
    25    19    21    1
    26    19    22    1
    27    23    24    1
    28    25    26    1
    29    25    27    1
    30    27    28    1
    31    27    29    1
    32    27    30    1
    33    31    32    1
    34    33    37    2
    35    33    38    1
    36    34    35    1
    37    34    36    1
    38    34    38    1
    39    34    39    1
    40    39    40    1
    41    39    41    1
    42    39    42    1
@<TRIPOS>SUBSTRUCTURE
     1 1           1 GROUP             0 ****  ****    0  
@<TRIPOS>MOLECULE
Molecule Name_00110
    42    42     1     0     0
SMALL
NO_CHARGES
****
Generated from the CSD

@<TRIPOS>ATOM
     1 C1       3.5228  -0.4801  -0.0738   C.ar      1 1      0.0000
     2 C2       2.9827  -0.6176   1.1856   C.ar      1 1      0.0000
     3 C3       1.6150  -0.4792   1.3373   C.ar      1 1      0.0000
     4 C4       0.7890  -0.2046   0.2530   C.ar      1 1      0.0000
     5 C5       1.3761  -0.0773  -1.0010   C.ar      1 1      0.0000
     6 C6       2.7414  -0.2119  -1.1757   C.ar      1 1      0.0000
     7 H7       3.6165  -0.8301   2.0402   H         1 1      0.0000
     8 H8       1.1824  -0.5889   2.3258   H         1 1      0.0000
     9 H9       0.7535   0.1317  -1.8645   H         1 1      0.0000
    10 H10      3.1872  -0.1085  -2.1595   H         1 1      0.0000
    11 N11      4.9734  -0.6238  -0.2467   N.pl3     1 1      0.0000
    12 O12      5.4370  -0.4991  -1.3696   O.2       1 1      0.0000
    13 O13      5.6525  -0.8617   0.7399   O.2       1 1      0.0000
    14 CL3     -0.7213  -0.0421   0.4304   C.3       1 1      0.0000
    15 CL1     -1.4887  -1.1558  -0.3371   C.3       1 1      0.0000
    16 H16     -1.4796  -0.9148  -1.4070   H         1 1      0.0000
    17 H17     -0.9387  -2.0975  -0.2190   H         1 1      0.0000
    18 CL      -2.9460  -1.3958   0.0950   C.3       1 1      0.0000
    19 CL2     -3.7168  -0.0938  -0.0234   C.3       1 1      0.0000
    20 H20     -4.7804  -0.2594   0.1352   H         1 1      0.0000
    21 H21     -3.3722   0.6270   0.7151   H         1 1      0.0000
    22 H22     -3.5855   0.3437  -1.0109   H         1 1      0.0000
    23 OL2     -1.0041  -0.0967   1.8231   O.3       1 1      0.0000
    24 H24     -1.9640   0.0900   1.9711   H         1 1      0.0000
    25 N25     -3.5675  -2.3753  -0.7574   N.3       1 1      0.0000
    26 H26     -4.5205  -2.5055  -0.4179   H         1 1      0.0000
    27 C27     -3.6595  -2.0548  -2.1828   C.3       1 1      0.0000
    28 H28     -2.6688  -1.9316  -2.6152   H         1 1      0.0000
    29 H29     -4.1694  -2.8488  -2.7245   H         1 1      0.0000
    30 H30     -4.2132  -1.1307  -2.3354   H         1 1      0.0000
    31 OL1     -2.9756  -1.7816   1.4640   O.3       1 1      0.0000
    32 H32     -3.9139  -1.9111   1.7487   H         1 1      0.0000
    33 CL4     -1.0448   1.3618  -0.1188   C.2       1 1      0.0000
    34 C34     -0.9935   3.6881   0.3417   C.3       1 1      0.0000
    35 H35     -0.3366   4.3783   0.8854   H         1 1      0.0000
    36 H36     -0.7917   3.8096  -0.7297   H         1 1      0.0000
    37 OL3     -1.5219   1.5564  -1.2027   O.2       1 1      0.0000
    38 OL4     -0.7312   2.3136   0.7518   O.3       1 1      0.0000
    39 C39     -2.4118   3.9945   0.6335   C.3       1 1      0.0000
    40 H40     -2.6189   3.8870   1.6962   H         1 1      0.0000
    41 H41     -2.6538   5.0145   0.3425   H         1 1      0.0000
    42 H42     -3.0715   3.3214   0.0898   H         1 1      0.0000
@<TRIPOS>BOND
     1     1     2   ar
     2     1     6   ar
     3     1    11    1
     4     2     3   ar
     5     2     7    1
     6     3     4   ar
     7     3     8    1
     8     4     5   ar
     9     4    14    1
    10     5     6   ar
    11     5     9    1
    12     6    10    1
    13    11    12    2
    14    11    13    2
    15    14    15    1
    16    14    23    1
    17    14    33    1
    18    15    16    1
    19    15    17    1
    20    15    18    1
    21    18    19    1
    22    18    25    1
    23    18    31    1
    24    19    20    1
    25    19    21    1
    26    19    22    1
    27    23    24    1
    28    25    26    1
    29    25    27    1
    30    27    28    1
    31    27    29    1
    32    27    30    1
    33    31    32    1
    34    33    37    2
    35    33    38    1
    36    34    35    1
    37    34    36    1
    38    34    38    1
    39    34    39    1
    40    39    40    1
    41    39    41    1
    42    39    42    1
@<TRIPOS>SUBSTRUCTURE
     1 1           1 GROUP             0 ****  ****    0  
@<TRIPOS>MOLECULE
Molecule Name_00111
    42    42     1     0     0
SMALL
NO_CHARGES
****
Generated from the CSD

@<TRIPOS>ATOM
     1 C1       3.4795  -0.5019  -0.0975   C.ar      1 1      0.0000
     2 C2       2.9070  -0.7170   1.1365   C.ar      1 1      0.0000
     3 C3       1.5411  -0.5460   1.2706   C.ar      1 1      0.0000
     4 C4       0.7488  -0.1632   0.1940   C.ar      1 1      0.0000
     5 C5       1.3679   0.0398  -1.0344   C.ar      1 1      0.0000
     6 C6       2.7321  -0.1255  -1.1912   C.ar      1 1      0.0000
     7 H7       3.5143  -1.0143   1.9850   H         1 1      0.0000
     8 H8       1.0830  -0.7163   2.2388   H         1 1      0.0000
     9 H9       0.7718   0.3338  -1.8919   H         1 1      0.0000
    10 H10      3.2031   0.0376  -2.1549   H         1 1      0.0000
    11 N11      4.9285  -0.6792  -0.2514   N.pl3     1 1      0.0000
    12 O12      5.4211  -0.4848  -1.3517   O.2       1 1      0.0000
    13 O13      5.5774  -1.0133   0.7277   O.2       1 1      0.0000
    14 CL3     -0.7594   0.0345   0.3526   C.3       1 1      0.0000
    15 CL1     -1.5432  -0.9922  -0.5135   C.3       1 1      0.0000
    16 H16     -1.5020  -0.6713  -1.5613   H         1 1      0.0000
    17 H17     -1.0256  -1.9577  -0.4564   H         1 1      0.0000
    18 CL      -3.0168  -1.2164  -0.1310   C.3       1 1      0.0000
    19 CL2     -3.7435   0.1156  -0.1638   C.3       1 1      0.0000
    20 H20     -4.8150  -0.0264  -0.0396   H         1 1      0.0000
    21 H21     -3.3930   0.7660   0.6349   H         1 1      0.0000
    22 H22     -3.5765   0.6228  -1.1118   H         1 1      0.0000
    23 OL2     -1.0753  -0.1165   1.7309   O.3       1 1      0.0000
    24 H24     -2.0322   0.0890   1.8732   H         1 1      0.0000
    25 N25     -3.6491  -2.1064  -1.0691   N.3       1 1      0.0000
    26 H26     -3.5981  -1.6608  -1.9852   H         1 1      0.0000
    27 C27     -3.0722  -3.4445  -1.2099   C.3       1 1      0.0000
    28 H28     -3.0969  -3.9769  -0.2614   H         1 1      0.0000
    29 H29     -3.6270  -4.0287  -1.9411   H         1 1      0.0000
    30 H30     -2.0367  -3.3854  -1.5385   H         1 1      0.0000
    31 OL1     -3.0898  -1.7050   1.2031   O.3       1 1      0.0000
    32 H32     -4.0379  -1.8249   1.4578   H         1 1      0.0000
    33 CL4     -1.0268   1.4858  -0.0939   C.2       1 1      0.0000
    34 C34     -0.9144   3.7675   0.5446   C.3       1 1      0.0000
    35 H35     -0.2493   4.3926   1.1530   H         1 1      0.0000
    36 H36     -0.6844   3.9634  -0.5100   H         1 1      0.0000
    37 OL3     -1.4726   1.7775  -1.1693   O.2       1 1      0.0000
    38 OL4     -0.7041   2.3580   0.8534   O.3       1 1      0.0000
    39 C39     -2.3289   4.0967   0.8297   C.3       1 1      0.0000
    40 H40     -2.5636   3.9156   1.8766   H         1 1      0.0000
    41 H41     -2.5326   5.1432   0.6129   H         1 1      0.0000
    42 H42     -2.9964   3.4886   0.2227   H         1 1      0.0000
@<TRIPOS>BOND
     1     1     2   ar
     2     1     6   ar
     3     1    11    1
     4     2     3   ar
     5     2     7    1
     6     3     4   ar
     7     3     8    1
     8     4     5   ar
     9     4    14    1
    10     5     6   ar
    11     5     9    1
    12     6    10    1
    13    11    12    2
    14    11    13    2
    15    14    15    1
    16    14    23    1
    17    14    33    1
    18    15    16    1
    19    15    17    1
    20    15    18    1
    21    18    19    1
    22    18    25    1
    23    18    31    1
    24    19    20    1
    25    19    21    1
    26    19    22    1
    27    23    24    1
    28    25    26    1
    29    25    27    1
    30    27    28    1
    31    27    29    1
    32    27    30    1
    33    31    32    1
    34    33    37    2
    35    33    38    1
    36    34    35    1
    37    34    36    1
    38    34    38    1
    39    34    39    1
    40    39    40    1
    41    39    41    1
    42    39    42    1
@<TRIPOS>SUBSTRUCTURE
     1 1           1 GROUP             0 ****  ****    0  
@<TRIPOS>MOLECULE
Molecule Name_00112
    42    42     1     0     0
SMALL
NO_CHARGES
****
Generated from the CSD

@<TRIPOS>ATOM
     1 C1       3.5672  -0.2974  -0.1886   C.ar      1 1      0.0000
     2 C2       2.7334   0.2821  -1.1189   C.ar      1 1      0.0000
     3 C3       1.3662   0.1746  -0.9396   C.ar      1 1      0.0000
     4 C4       0.8285  -0.5025   0.1494   C.ar      1 1      0.0000
     5 C5       1.7070  -1.0693   1.0661   C.ar      1 1      0.0000
     6 C6       3.0775  -0.9739   0.9065   C.ar      1 1      0.0000
     7 H7       3.1402   0.8117  -1.9741   H         1 1      0.0000
     8 H8       0.7035   0.6308  -1.6668   H         1 1      0.0000
     9 H9       1.3135  -1.5986   1.9275   H         1 1      0.0000
    10 H10      3.7522  -1.4222   1.6284   H         1 1      0.0000
    11 N11      5.0200  -0.1906  -0.3692   N.pl3     1 1      0.0000
    12 O12      5.7459  -0.7097   0.4643   O.2       1 1      0.0000
    13 O13      5.4385   0.4125  -1.3451   O.2       1 1      0.0000
    14 CL3     -0.6844  -0.6266   0.3352   C.3       1 1      0.0000
    15 CL1     -1.4006  -0.7395  -1.0405   C.3       1 1      0.0000
    16 H16     -1.1556   0.1472  -1.6375   H         1 1      0.0000
    17 H17     -0.9885  -1.6052  -1.5736   H         1 1      0.0000
    18 CL      -2.9316  -0.8892  -0.9974   C.3       1 1      0.0000
    19 CL2     -3.2793  -2.2270  -0.3706   C.3       1 1      0.0000
    20 H20     -4.3491  -2.4154  -0.4325   H         1 1      0.0000
    21 H21     -2.7624  -3.0375  -0.8801   H         1 1      0.0000
    22 H22     -2.9916  -2.2479   0.6784   H         1 1      0.0000
    23 OL2     -0.9317  -1.7773   1.1335   O.3       1 1      0.0000
    24 H24     -1.5639  -1.5452   1.8577   H         1 1      0.0000
    25 N25     -3.5158   0.1564  -0.1990   N.3       1 1      0.0000
    26 H26     -4.1308   0.6922  -0.8115   H         1 1      0.0000
    27 C27     -4.3140  -0.2556   0.9569   C.3       1 1      0.0000
    28 H28     -3.6942  -0.7653   1.6917   H         1 1      0.0000
    29 H29     -4.7699   0.6071   1.4381   H         1 1      0.0000
    30 H30     -5.1087  -0.9344   0.6546   H         1 1      0.0000
    31 OL1     -3.4432  -0.8985  -2.3248   O.3       1 1      0.0000
    32 H32     -4.4243  -1.0202  -2.2980   H         1 1      0.0000
    33 CL4     -1.1042   0.6453   1.0990   C.2       1 1      0.0000
    34 C34     -1.5377   2.9699   0.9129   C.3       1 1      0.0000
    35 H35     -2.5374   2.8870   1.3567   H         1 1      0.0000
    36 H36     -0.8371   3.2327   1.7152   H         1 1      0.0000
    37 OL3     -1.3550   0.6619   2.2725   O.2       1 1      0.0000
    38 OL4     -1.1512   1.7044   0.3002   O.3       1 1      0.0000
    39 C39     -1.5285   4.0132  -0.1368   C.3       1 1      0.0000
    40 H40     -2.2287   3.7662  -0.9321   H         1 1      0.0000
    41 H41     -1.8120   4.9788   0.2766   H         1 1      0.0000
    42 H42     -0.5376   4.1101  -0.5756   H         1 1      0.0000
@<TRIPOS>BOND
     1     1     2   ar
     2     1     6   ar
     3     1    11    1
     4     2     3   ar
     5     2     7    1
     6     3     4   ar
     7     3     8    1
     8     4     5   ar
     9     4    14    1
    10     5     6   ar
    11     5     9    1
    12     6    10    1
    13    11    12    2
    14    11    13    2
    15    14    15    1
    16    14    23    1
    17    14    33    1
    18    15    16    1
    19    15    17    1
    20    15    18    1
    21    18    19    1
    22    18    25    1
    23    18    31    1
    24    19    20    1
    25    19    21    1
    26    19    22    1
    27    23    24    1
    28    25    26    1
    29    25    27    1
    30    27    28    1
    31    27    29    1
    32    27    30    1
    33    31    32    1
    34    33    37    2
    35    33    38    1
    36    34    35    1
    37    34    36    1
    38    34    38    1
    39    34    39    1
    40    39    40    1
    41    39    41    1
    42    39    42    1
@<TRIPOS>SUBSTRUCTURE
     1 1           1 GROUP             0 ****  ****    0  
@<TRIPOS>MOLECULE
Molecule Name_00113
    42    42     1     0     0
SMALL
NO_CHARGES
****
Generated from the CSD

@<TRIPOS>ATOM
     1 C1       3.0882  -0.5935  -0.3371   C.ar      1 1      0.0000
     2 C2       2.3160   0.1347  -1.2146   C.ar      1 1      0.0000
     3 C3       1.0054   0.4110  -0.8699   C.ar      1 1      0.0000
     4 C4       0.4627  -0.0315   0.3313   C.ar      1 1      0.0000
     5 C5       1.2790  -0.7603   1.1890   C.ar      1 1      0.0000
     6 C6       2.5923  -1.0480   0.8646   C.ar      1 1      0.0000
     7 H7       2.7270   0.4842  -2.1560   H         1 1      0.0000
     8 H8       0.3922   0.9863  -1.5550   H         1 1      0.0000
     9 H9       0.8817  -1.1128   2.1350   H         1 1      0.0000
    10 H10      3.2183  -1.6192   1.5422   H         1 1      0.0000
    11 N11      4.4804  -0.8937  -0.6929   N.pl3     1 1      0.0000
    12 O12      5.1521  -1.5403   0.0957   O.2       1 1      0.0000
    13 O13      4.9053  -0.4836  -1.7617   O.2       1 1      0.0000
    14 CL3     -0.9907   0.2687   0.7007   C.3       1 1      0.0000
    15 CL1     -1.9105   0.1572  -0.5483   C.3       1 1      0.0000
    16 H16     -2.8368   0.7107  -0.3525   H         1 1      0.0000
    17 H17     -1.4131   0.6573  -1.3884   H         1 1      0.0000
    18 CL      -2.2806  -1.2690  -0.9923   C.3       1 1      0.0000
    19 CL2     -1.0130  -2.0126  -1.3713   C.3       1 1      0.0000
    20 H20     -1.2493  -2.9299  -1.9066   H         1 1      0.0000
    21 H21     -0.3828  -1.3991  -2.0118   H         1 1      0.0000
    22 H22     -0.4404  -2.2758  -0.4843   H         1 1      0.0000
    23 OL2     -1.3840  -0.6569   1.7063   O.3       1 1      0.0000
    24 H24     -2.3103  -0.4592   1.9909   H         1 1      0.0000
    25 N25     -2.9239  -1.9783   0.0824   N.3       1 1      0.0000
    26 H26     -3.7579  -1.4477   0.3340   H         1 1      0.0000
    27 C27     -3.3543  -3.3509  -0.1894   C.3       1 1      0.0000
    28 H28     -2.5058  -3.9737  -0.4650   H         1 1      0.0000
    29 H29     -3.8249  -3.7885   0.6885   H         1 1      0.0000
    30 H30     -4.0722  -3.3753  -1.0065   H         1 1      0.0000
    31 OL1     -3.0969  -1.2050  -2.1556   O.3       1 1      0.0000
    32 H32     -3.2955  -2.1219  -2.4687   H         1 1      0.0000
    33 CL4     -0.9751   1.6986   1.2771   C.2       1 1      0.0000
    34 C34     -0.8626   4.0074   0.7450   C.3       1 1      0.0000
    35 H35     -0.2994   4.1088   1.6809   H         1 1      0.0000
    36 H36     -0.3664   4.6271  -0.0120   H         1 1      0.0000
    37 OL3     -1.0363   1.9413   2.4509   O.2       1 1      0.0000
    38 OL4     -0.8862   2.6130   0.3190   O.3       1 1      0.0000
    39 C39     -2.2601   4.4552   0.9373   C.3       1 1      0.0000
    40 H40     -2.7574   3.8527   1.6946   H         1 1      0.0000
    41 H41     -2.2915   5.4947   1.2569   H         1 1      0.0000
    42 H42     -2.8240   4.3682   0.0109   H         1 1      0.0000
@<TRIPOS>BOND
     1     1     2   ar
     2     1     6   ar
     3     1    11    1
     4     2     3   ar
     5     2     7    1
     6     3     4   ar
     7     3     8    1
     8     4     5   ar
     9     4    14    1
    10     5     6   ar
    11     5     9    1
    12     6    10    1
    13    11    12    2
    14    11    13    2
    15    14    15    1
    16    14    23    1
    17    14    33    1
    18    15    16    1
    19    15    17    1
    20    15    18    1
    21    18    19    1
    22    18    25    1
    23    18    31    1
    24    19    20    1
    25    19    21    1
    26    19    22    1
    27    23    24    1
    28    25    26    1
    29    25    27    1
    30    27    28    1
    31    27    29    1
    32    27    30    1
    33    31    32    1
    34    33    37    2
    35    33    38    1
    36    34    35    1
    37    34    36    1
    38    34    38    1
    39    34    39    1
    40    39    40    1
    41    39    41    1
    42    39    42    1
@<TRIPOS>SUBSTRUCTURE
     1 1           1 GROUP             0 ****  ****    0  
@<TRIPOS>MOLECULE
Molecule Name_00114
    42    42     1     0     0
SMALL
NO_CHARGES
****
Generated from the CSD

@<TRIPOS>ATOM
     1 C1       3.1534  -0.5573  -0.3468   C.ar      1 1      0.0000
     2 C2       2.3657   0.1622  -1.2177   C.ar      1 1      0.0000
     3 C3       1.0410   0.3801  -0.8851   C.ar      1 1      0.0000
     4 C4       0.4997  -0.1116   0.2975   C.ar      1 1      0.0000
     5 C5       1.3318  -0.8296   1.1491   C.ar      1 1      0.0000
     6 C6       2.6594  -1.0593   0.8366   C.ar      1 1      0.0000
     7 H7       2.7754   0.5498  -2.1446   H         1 1      0.0000
     8 H8       0.4154   0.9482  -1.5649   H         1 1      0.0000
     9 H9       0.9358  -1.2197   2.0807   H         1 1      0.0000
    10 H10      3.2977  -1.6227   1.5092   H         1 1      0.0000
    11 N11      4.5606  -0.7959  -0.6899   N.pl3     1 1      0.0000
    12 O12      5.2460  -1.4355   0.0926   O.2       1 1      0.0000
    13 O13      4.9837  -0.3442  -1.7426   O.2       1 1      0.0000
    14 CL3     -0.9689   0.1242   0.6533   C.3       1 1      0.0000
    15 CL1     -1.8671   0.0083  -0.6110   C.3       1 1      0.0000
    16 H16     -2.8164   0.5214  -0.4152   H         1 1      0.0000
    17 H17     -1.3781   0.5473  -1.4318   H         1 1      0.0000
    18 CL      -2.1765  -1.4197  -1.0940   C.3       1 1      0.0000
    19 CL2     -0.8765  -2.1053  -1.4725   C.3       1 1      0.0000
    20 H20     -1.0705  -3.0176  -2.0327   H         1 1      0.0000
    21 H21     -0.2618  -1.4530  -2.0894   H         1 1      0.0000
    22 H22     -0.3060  -2.3679  -0.5841   H         1 1      0.0000
    23 OL2     -1.3398  -0.8398   1.6308   O.3       1 1      0.0000
    24 H24     -2.2355  -0.6187   1.9872   H         1 1      0.0000
    25 N25     -2.8064  -2.1787  -0.0456   N.3       1 1      0.0000
    26 H26     -2.1485  -2.2166   0.7329   H         1 1      0.0000
    27 C27     -4.0692  -1.6614   0.4843   C.3       1 1      0.0000
    28 H28     -4.8256  -1.6165  -0.2964   H         1 1      0.0000
    29 H29     -4.4430  -2.2997   1.2821   H         1 1      0.0000
    30 H30     -3.9370  -0.6590   0.8861   H         1 1      0.0000
    31 OL1     -2.9792  -1.3583  -2.2669   O.3       1 1      0.0000
    32 H32     -3.1568  -2.2754  -2.5919   H         1 1      0.0000
    33 CL4     -1.0156   1.5392   1.2637   C.2       1 1      0.0000
    34 C34     -0.9843   3.8629   0.7882   C.3       1 1      0.0000
    35 H35     -0.4379   3.9628   1.7342   H         1 1      0.0000
    36 H36     -0.5021   4.5192   0.0533   H         1 1      0.0000
    37 OL3     -1.1015   1.7509   2.4419   O.2       1 1      0.0000
    38 OL4     -0.9489   2.4794   0.3289   O.3       1 1      0.0000
    39 C39     -2.4003   4.2526   0.9713   C.3       1 1      0.0000
    40 H40     -2.8842   3.6135   1.7069   H         1 1      0.0000
    41 H41     -2.4756   5.2822   1.3150   H         1 1      0.0000
    42 H42     -2.9481   4.1669   0.0352   H         1 1      0.0000
@<TRIPOS>BOND
     1     1     2   ar
     2     1     6   ar
     3     1    11    1
     4     2     3   ar
     5     2     7    1
     6     3     4   ar
     7     3     8    1
     8     4     5   ar
     9     4    14    1
    10     5     6   ar
    11     5     9    1
    12     6    10    1
    13    11    12    2
    14    11    13    2
    15    14    15    1
    16    14    23    1
    17    14    33    1
    18    15    16    1
    19    15    17    1
    20    15    18    1
    21    18    19    1
    22    18    25    1
    23    18    31    1
    24    19    20    1
    25    19    21    1
    26    19    22    1
    27    23    24    1
    28    25    26    1
    29    25    27    1
    30    27    28    1
    31    27    29    1
    32    27    30    1
    33    31    32    1
    34    33    37    2
    35    33    38    1
    36    34    35    1
    37    34    36    1
    38    34    38    1
    39    34    39    1
    40    39    40    1
    41    39    41    1
    42    39    42    1
@<TRIPOS>SUBSTRUCTURE
     1 1           1 GROUP             0 ****  ****    0  
@<TRIPOS>MOLECULE
Molecule Name_00115
    42    42     1     0     0
SMALL
NO_CHARGES
****
Generated from the CSD

@<TRIPOS>ATOM
     1 C1       2.9854  -0.4353  -0.3681   C.ar      1 1      0.0000
     2 C2       2.1656   0.2389  -1.2456   C.ar      1 1      0.0000
     3 C3       0.8452   0.4467  -0.8902   C.ar      1 1      0.0000
     4 C4       0.3396  -0.0107   0.3215   C.ar      1 1      0.0000
     5 C5       1.2033  -0.6834   1.1788   C.ar      1 1      0.0000
     6 C6       2.5272  -0.9022   0.8438   C.ar      1 1      0.0000
     7 H7       2.5473   0.5994  -2.1951   H         1 1      0.0000
     8 H8       0.1945   0.9792  -1.5752   H         1 1      0.0000
     9 H9       0.8354  -1.0460   2.1328   H         1 1      0.0000
    10 H10      3.1904  -1.4300   1.5211   H         1 1      0.0000
    11 N11      4.3884  -0.6626  -0.7351   N.pl3     1 1      0.0000
    12 O12      5.1025  -1.2620   0.0536   O.2       1 1      0.0000
    13 O13      4.7795  -0.2424  -1.8129   O.2       1 1      0.0000
    14 CL3     -1.1245   0.2133   0.7028   C.3       1 1      0.0000
    15 CL1     -2.0490   0.0366  -0.5351   C.3       1 1      0.0000
    16 H16     -3.0024   0.5406  -0.3358   H         1 1      0.0000
    17 H17     -1.5882   0.5534  -1.3860   H         1 1      0.0000
    18 CL      -2.3443  -1.4129  -0.9592   C.3       1 1      0.0000
    19 CL2     -1.0413  -2.0901  -1.3431   C.3       1 1      0.0000
    20 H20     -1.2320  -3.0252  -1.8656   H         1 1      0.0000
    21 H21     -0.4523  -1.4504  -1.9970   H         1 1      0.0000
    22 H22     -0.4464  -2.3109  -0.4593   H         1 1      0.0000
    23 OL2     -1.4561  -0.7206   1.7228   O.3       1 1      0.0000
    24 H24     -2.3891  -0.5708   2.0149   H         1 1      0.0000
    25 N25     -2.9368  -2.1438   0.1302   N.3       1 1      0.0000
    26 H26     -3.7962  -1.6569   0.3846   H         1 1      0.0000
    27 C27     -3.2934  -3.5411  -0.1216   C.3       1 1      0.0000
    28 H28     -2.4147  -4.1195  -0.3991   H         1 1      0.0000
    29 H29     -3.7305  -3.9936   0.7660   H         1 1      0.0000
    30 H30     -4.0170  -3.6147  -0.9308   H         1 1      0.0000
    31 OL1     -3.1743  -1.4076  -2.1145   O.3       1 1      0.0000
    32 H32     -3.3251  -2.3377  -2.4151   H         1 1      0.0000
    33 CL4     -1.1820   1.6486   1.2629   C.2       1 1      0.0000
    34 C34     -1.2023   3.9536   0.7037   C.3       1 1      0.0000
    35 H35     -1.6044   4.5730  -0.1075   H         1 1      0.0000
    36 H36     -1.8621   4.0715   1.5721   H         1 1      0.0000
    37 OL3     -1.2449   1.9014   2.4345   O.2       1 1      0.0000
    38 OL4     -1.1531   2.5551   0.2937   O.3       1 1      0.0000
    39 C39      0.1725   4.3840   1.0431   C.3       1 1      0.0000
    40 H40      0.8322   4.2806   0.1841   H         1 1      0.0000
    41 H41      0.1843   5.4259   1.3561   H         1 1      0.0000
    42 H42      0.5759   3.7818   1.8546   H         1 1      0.0000
@<TRIPOS>BOND
     1     1     2   ar
     2     1     6   ar
     3     1    11    1
     4     2     3   ar
     5     2     7    1
     6     3     4   ar
     7     3     8    1
     8     4     5   ar
     9     4    14    1
    10     5     6   ar
    11     5     9    1
    12     6    10    1
    13    11    12    2
    14    11    13    2
    15    14    15    1
    16    14    23    1
    17    14    33    1
    18    15    16    1
    19    15    17    1
    20    15    18    1
    21    18    19    1
    22    18    25    1
    23    18    31    1
    24    19    20    1
    25    19    21    1
    26    19    22    1
    27    23    24    1
    28    25    26    1
    29    25    27    1
    30    27    28    1
    31    27    29    1
    32    27    30    1
    33    31    32    1
    34    33    37    2
    35    33    38    1
    36    34    35    1
    37    34    36    1
    38    34    38    1
    39    34    39    1
    40    39    40    1
    41    39    41    1
    42    39    42    1
@<TRIPOS>SUBSTRUCTURE
     1 1           1 GROUP             0 ****  ****    0  
@<TRIPOS>MOLECULE
Molecule Name_00116
    42    42     1     0     0
SMALL
NO_CHARGES
****
Generated from the CSD

@<TRIPOS>ATOM
     1 C1       3.0495  -0.3981  -0.3766   C.ar      1 1      0.0000
     2 C2       2.2146   0.2621  -1.2504   C.ar      1 1      0.0000
     3 C3       0.8827   0.4103  -0.9081   C.ar      1 1      0.0000
     4 C4       0.3808  -0.0923   0.2871   C.ar      1 1      0.0000
     5 C5       1.2598  -0.7488   1.1414   C.ar      1 1      0.0000
     6 C6       2.5953  -0.9083   0.8192   C.ar      1 1      0.0000
     7 H7       2.5934   0.6574  -2.1871   H         1 1      0.0000
     8 H8       0.2200   0.9315  -1.5902   H         1 1      0.0000
     9 H9       0.8948  -1.1459   2.0827   H         1 1      0.0000
    10 H10      3.2705  -1.4242   1.4940   H         1 1      0.0000
    11 N11      4.4648  -0.5624  -0.7299   N.pl3     1 1      0.0000
    12 O12      5.1923  -1.1500   0.0554   O.2       1 1      0.0000
    13 O13      4.8521  -0.1043  -1.7935   O.2       1 1      0.0000
    14 CL3     -1.0955   0.0659   0.6539   C.3       1 1      0.0000
    15 CL1     -1.9971  -0.1203  -0.5995   C.3       1 1      0.0000
    16 H16     -2.9720   0.3416  -0.4022   H         1 1      0.0000
    17 H17     -1.5467   0.4323  -1.4333   H         1 1      0.0000
    18 CL      -2.2298  -1.5708  -1.0576   C.3       1 1      0.0000
    19 CL2     -0.8966  -2.1880  -1.4385   C.3       1 1      0.0000
    20 H20     -1.0438  -3.1185  -1.9828   H         1 1      0.0000
    21 H21     -0.3254  -1.5120  -2.0713   H         1 1      0.0000
    22 H22     -0.3042  -2.4041  -0.5518   H         1 1      0.0000
    23 OL2     -1.4025  -0.9018   1.6497   O.3       1 1      0.0000
    24 H24     -2.3060  -0.7259   2.0114   H         1 1      0.0000
    25 N25     -2.8063  -2.3475   0.0084   N.3       1 1      0.0000
    26 H26     -2.1403  -2.3360   0.7809   H         1 1      0.0000
    27 C27     -4.0914  -1.8938   0.5429   C.3       1 1      0.0000
    28 H28     -4.8562  -1.9039  -0.2309   H         1 1      0.0000
    29 H29     -4.4214  -2.5395   1.3540   H         1 1      0.0000
    30 H30     -4.0124  -0.8793   0.9281   H         1 1      0.0000
    31 OL1     -3.0452  -1.5733  -2.2233   O.3       1 1      0.0000
    32 H32     -3.1737  -2.5039  -2.5325   H         1 1      0.0000
    33 CL4     -1.2164   1.4856   1.2430   C.2       1 1      0.0000
    34 C34     -1.3207   3.7995   0.7319   C.3       1 1      0.0000
    35 H35     -1.7370   4.4199  -0.0714   H         1 1      0.0000
    36 H36     -1.9952   3.8729   1.5939   H         1 1      0.0000
    37 OL3     -1.3036   1.7106   2.4187   O.2       1 1      0.0000
    38 OL4     -1.2114   2.4131   0.2934   O.3       1 1      0.0000
    39 C39      0.0318   4.2760   1.0982   C.3       1 1      0.0000
    40 H40      0.7055   4.2170   0.2459   H         1 1      0.0000
    41 H41     -0.0014   5.3107   1.4330   H         1 1      0.0000
    42 H42      0.4486   3.6729   1.9021   H         1 1      0.0000
@<TRIPOS>BOND
     1     1     2   ar
     2     1     6   ar
     3     1    11    1
     4     2     3   ar
     5     2     7    1
     6     3     4   ar
     7     3     8    1
     8     4     5   ar
     9     4    14    1
    10     5     6   ar
    11     5     9    1
    12     6    10    1
    13    11    12    2
    14    11    13    2
    15    14    15    1
    16    14    23    1
    17    14    33    1
    18    15    16    1
    19    15    17    1
    20    15    18    1
    21    18    19    1
    22    18    25    1
    23    18    31    1
    24    19    20    1
    25    19    21    1
    26    19    22    1
    27    23    24    1
    28    25    26    1
    29    25    27    1
    30    27    28    1
    31    27    29    1
    32    27    30    1
    33    31    32    1
    34    33    37    2
    35    33    38    1
    36    34    35    1
    37    34    36    1
    38    34    38    1
    39    34    39    1
    40    39    40    1
    41    39    41    1
    42    39    42    1
@<TRIPOS>SUBSTRUCTURE
     1 1           1 GROUP             0 ****  ****    0  
@<TRIPOS>MOLECULE
Molecule Name_00117
    42    42     1     0     0
SMALL
NO_CHARGES
****
Generated from the CSD

@<TRIPOS>ATOM
     1 C1       3.4527  -0.1575  -0.1999   C.ar      1 1      0.0000
     2 C2       2.6000   0.1580  -1.2343   C.ar      1 1      0.0000
     3 C3       1.2369   0.0647  -1.0196   C.ar      1 1      0.0000
     4 C4       0.7219  -0.3395   0.2071   C.ar      1 1      0.0000
     5 C5       1.6189  -0.6449   1.2247   C.ar      1 1      0.0000
     6 C6       2.9857  -0.5585   1.0320   C.ar      1 1      0.0000
     7 H7       2.9891   0.4730  -2.1969   H         1 1      0.0000
     8 H8       0.5594   0.3142  -1.8288   H         1 1      0.0000
     9 H9       1.2430  -0.9578   2.1931   H         1 1      0.0000
    10 H10      3.6750  -0.8013   1.8339   H         1 1      0.0000
    11 N11      4.9015  -0.0633  -0.4167   N.pl3     1 1      0.0000
    12 O12      5.6444  -0.3463   0.5102   O.2       1 1      0.0000
    13 O13      5.2998   0.2940  -1.5144   O.2       1 1      0.0000
    14 CL3     -0.7865  -0.4507   0.4337   C.3       1 1      0.0000
    15 CL1     -1.5114  -0.8639  -0.8786   C.3       1 1      0.0000
    16 H16     -1.3419  -0.0861  -1.6329   H         1 1      0.0000
    17 H17     -1.0430  -1.7809  -1.2571   H         1 1      0.0000
    18 CL      -3.0261  -1.1116  -0.7671   C.3       1 1      0.0000
    19 CL2     -3.5722  -1.4567  -2.1404   C.3       1 1      0.0000
    20 H20     -4.6504  -1.5975  -2.1025   H         1 1      0.0000
    21 H21     -3.3591  -0.6611  -2.8513   H         1 1      0.0000
    22 H22     -3.1235  -2.3746  -2.5144   H         1 1      0.0000
    23 OL2     -1.0026  -1.4125   1.4588   O.3       1 1      0.0000
    24 H24     -1.5527  -1.0108   2.1758   H         1 1      0.0000
    25 N25     -3.2905  -2.2130   0.1211   N.3       1 1      0.0000
    26 H26     -2.8943  -1.9674   1.0284   H         1 1      0.0000
    27 C27     -4.6937  -2.5645   0.3464   C.3       1 1      0.0000
    28 H28     -5.1716  -2.8600  -0.5852   H         1 1      0.0000
    29 H29     -4.7761  -3.3927   1.0472   H         1 1      0.0000
    30 H30     -5.2423  -1.7186   0.7554   H         1 1      0.0000
    31 OL1     -3.6707   0.0839  -0.3440   O.3       1 1      0.0000
    32 H32     -4.6486  -0.0615  -0.3178   H         1 1      0.0000
    33 CL4     -1.2271   0.9449   0.9187   C.2       1 1      0.0000
    34 C34     -0.8318   3.2773   0.7444   C.3       1 1      0.0000
    35 H35     -1.8755   3.5031   0.4932   H         1 1      0.0000
    36 H36     -0.7138   3.4060   1.8274   H         1 1      0.0000
    37 OL3     -2.1156   1.1239   1.7054   O.2       1 1      0.0000
    38 OL4     -0.5052   1.9090   0.3604   O.3       1 1      0.0000
    39 C39      0.0787   4.1906   0.0181   C.3       1 1      0.0000
    40 H40     -0.0391   4.0776  -1.0575   H         1 1      0.0000
    41 H41     -0.1294   5.2272   0.2748   H         1 1      0.0000
    42 H42      1.1163   3.9809   0.2694   H         1 1      0.0000
@<TRIPOS>BOND
     1     1     2   ar
     2     1     6   ar
     3     1    11    1
     4     2     3   ar
     5     2     7    1
     6     3     4   ar
     7     3     8    1
     8     4     5   ar
     9     4    14    1
    10     5     6   ar
    11     5     9    1
    12     6    10    1
    13    11    12    2
    14    11    13    2
    15    14    15    1
    16    14    23    1
    17    14    33    1
    18    15    16    1
    19    15    17    1
    20    15    18    1
    21    18    19    1
    22    18    25    1
    23    18    31    1
    24    19    20    1
    25    19    21    1
    26    19    22    1
    27    23    24    1
    28    25    26    1
    29    25    27    1
    30    27    28    1
    31    27    29    1
    32    27    30    1
    33    31    32    1
    34    33    37    2
    35    33    38    1
    36    34    35    1
    37    34    36    1
    38    34    38    1
    39    34    39    1
    40    39    40    1
    41    39    41    1
    42    39    42    1
@<TRIPOS>SUBSTRUCTURE
     1 1           1 GROUP             0 ****  ****    0  
@<TRIPOS>MOLECULE
Molecule Name_00118
    42    42     1     0     0
SMALL
NO_CHARGES
****
Generated from the CSD

@<TRIPOS>ATOM
     1 C1       3.3549  -0.2434  -0.2014   C.ar      1 1      0.0000
     2 C2       2.5045   0.0853  -1.2336   C.ar      1 1      0.0000
     3 C3       1.1411   0.0486  -1.0043   C.ar      1 1      0.0000
     4 C4       0.6234  -0.3125   0.2347   C.ar      1 1      0.0000
     5 C5       1.5183  -0.6332   1.2494   C.ar      1 1      0.0000
     6 C6       2.8854  -0.6031   1.0423   C.ar      1 1      0.0000
     7 H7       2.8956   0.3670  -2.2056   H         1 1      0.0000
     8 H8       0.4654   0.3089  -1.8117   H         1 1      0.0000
     9 H9       1.1405  -0.9132   2.2271   H         1 1      0.0000
    10 H10      3.5730  -0.8573   1.8422   H         1 1      0.0000
    11 N11      4.8039  -0.2092  -0.4336   N.pl3     1 1      0.0000
    12 O12      5.5448  -0.5033   0.4915   O.2       1 1      0.0000
    13 O13      5.2046   0.1118  -1.5416   O.2       1 1      0.0000
    14 CL3     -0.8858  -0.3612   0.4776   C.3       1 1      0.0000
    15 CL1     -1.6392  -0.7706  -0.8197   C.3       1 1      0.0000
    16 H16     -1.4477  -0.0142  -1.5903   H         1 1      0.0000
    17 H17     -1.2103  -1.7119  -1.1851   H         1 1      0.0000
    18 CL      -3.1611  -0.9576  -0.6893   C.3       1 1      0.0000
    19 CL2     -3.7340  -1.3070  -2.0506   C.3       1 1      0.0000
    20 H20     -4.8108  -1.4506  -1.9906   H         1 1      0.0000
    21 H21     -3.5375  -0.5123  -2.7672   H         1 1      0.0000
    22 H22     -3.2904  -2.2244  -2.4318   H         1 1      0.0000
    23 OL2     -1.1282  -1.2947   1.5227   O.3       1 1      0.0000
    24 H24     -2.0959  -1.3166   1.7259   H         1 1      0.0000
    25 N25     -3.4586  -2.0312   0.2222   N.3       1 1      0.0000
    26 H26     -4.4746  -2.1012   0.2805   H         1 1      0.0000
    27 C27     -2.9562  -3.3608  -0.1284   C.3       1 1      0.0000
    28 H28     -1.8710  -3.3547  -0.2066   H         1 1      0.0000
    29 H29     -3.2375  -4.0911   0.6274   H         1 1      0.0000
    30 H30     -3.3629  -3.6873  -1.0833   H         1 1      0.0000
    31 OL1     -3.7550   0.2696  -0.2830   O.3       1 1      0.0000
    32 H32     -4.7358   0.1564  -0.2239   H         1 1      0.0000
    33 CL4     -1.2676   1.0592   0.9400   C.2       1 1      0.0000
    34 C34     -0.7849   3.3709   0.7176   C.3       1 1      0.0000
    35 H35     -1.8217   3.6321   0.4720   H         1 1      0.0000
    36 H36     -0.6511   3.5151   1.7968   H         1 1      0.0000
    37 OL3     -2.1406   1.2869   1.7315   O.2       1 1      0.0000
    38 OL4     -0.5150   1.9841   0.3567   O.3       1 1      0.0000
    39 C39      0.1525   4.2347  -0.0345   C.3       1 1      0.0000
    40 H40      0.0196   4.1062  -1.1067   H         1 1      0.0000
    41 H41     -0.0130   5.2832   0.2044   H         1 1      0.0000
    42 H42      1.1838   3.9899   0.2110   H         1 1      0.0000
@<TRIPOS>BOND
     1     1     2   ar
     2     1     6   ar
     3     1    11    1
     4     2     3   ar
     5     2     7    1
     6     3     4   ar
     7     3     8    1
     8     4     5   ar
     9     4    14    1
    10     5     6   ar
    11     5     9    1
    12     6    10    1
    13    11    12    2
    14    11    13    2
    15    14    15    1
    16    14    23    1
    17    14    33    1
    18    15    16    1
    19    15    17    1
    20    15    18    1
    21    18    19    1
    22    18    25    1
    23    18    31    1
    24    19    20    1
    25    19    21    1
    26    19    22    1
    27    23    24    1
    28    25    26    1
    29    25    27    1
    30    27    28    1
    31    27    29    1
    32    27    30    1
    33    31    32    1
    34    33    37    2
    35    33    38    1
    36    34    35    1
    37    34    36    1
    38    34    38    1
    39    34    39    1
    40    39    40    1
    41    39    41    1
    42    39    42    1
@<TRIPOS>SUBSTRUCTURE
     1 1           1 GROUP             0 ****  ****    0  
@<TRIPOS>MOLECULE
Molecule Name_00119
    42    42     1     0     0
SMALL
NO_CHARGES
****
Generated from the CSD

@<TRIPOS>ATOM
     1 C1       3.4790  -0.1346  -0.2227   C.ar      1 1      0.0000
     2 C2       2.6076   0.2012  -1.2349   C.ar      1 1      0.0000
     3 C3       1.2504   0.0484  -1.0168   C.ar      1 1      0.0000
     4 C4       0.7597  -0.4347   0.1912   C.ar      1 1      0.0000
     5 C5       1.6749  -0.7580   1.1868   C.ar      1 1      0.0000
     6 C6       3.0362  -0.6130   0.9904   C.ar      1 1      0.0000
     7 H7       2.9777   0.5775  -2.1828   H         1 1      0.0000
     8 H8       0.5581   0.3134  -1.8085   H         1 1      0.0000
     9 H9       1.3181  -1.1320   2.1406   H         1 1      0.0000
    10 H10      3.7400  -0.8705   1.7750   H         1 1      0.0000
    11 N11      4.9218   0.0223  -0.4432   N.pl3     1 1      0.0000
    12 O12      5.6815  -0.2796   0.4638   O.2       1 1      0.0000
    13 O13      5.2985   0.4479  -1.5241   O.2       1 1      0.0000
    14 CL3     -0.7419  -0.6112   0.4211   C.3       1 1      0.0000
    15 CL1     -1.4619  -0.9845  -0.9058   C.3       1 1      0.0000
    16 H16     -1.3275  -0.1640  -1.6209   H         1 1      0.0000
    17 H17     -0.9631  -1.8632  -1.3333   H         1 1      0.0000
    18 CL      -2.9654  -1.2940  -0.7973   C.3       1 1      0.0000
    19 CL2     -3.1560  -2.5131   0.0863   C.3       1 1      0.0000
    20 H20     -4.0558  -3.0564  -0.1948   H         1 1      0.0000
    21 H21     -2.3092  -3.1905  -0.0032   H         1 1      0.0000
    22 H22     -3.2482  -2.2220   1.1306   H         1 1      0.0000
    23 OL2     -0.9156  -1.6299   1.3981   O.3       1 1      0.0000
    24 H24     -1.6496  -1.3763   2.0105   H         1 1      0.0000
    25 N25     -3.6647  -0.1844  -0.2042   N.3       1 1      0.0000
    26 H26     -3.5023   0.6257  -0.8023   H         1 1      0.0000
    27 C27     -5.1140  -0.3182  -0.0470   C.3       1 1      0.0000
    28 H28     -5.3564  -1.1698   0.5853   H         1 1      0.0000
    29 H29     -5.5364   0.5743   0.4099   H         1 1      0.0000
    30 H30     -5.5947  -0.4649  -1.0120   H         1 1      0.0000
    31 OL1     -3.4747  -1.6212  -2.0847   O.3       1 1      0.0000
    32 H32     -4.4299  -1.8660  -2.0078   H         1 1      0.0000
    33 CL4     -1.2282   0.7419   0.9778   C.2       1 1      0.0000
    34 C34     -0.9345   3.0943   0.8990   C.3       1 1      0.0000
    35 H35     -1.9925   3.2863   0.6818   H         1 1      0.0000
    36 H36     -0.7956   3.1804   1.9838   H         1 1      0.0000
    37 OL3     -2.1039   0.8482   1.7915   O.2       1 1      0.0000
    38 OL4     -0.5608   1.7592   0.4470   O.3       1 1      0.0000
    39 C39     -0.0807   4.0764   0.1940   C.3       1 1      0.0000
    40 H40     -0.2199   4.0056  -0.8827   H         1 1      0.0000
    41 H41     -0.3254   5.0910   0.5014   H         1 1      0.0000
    42 H42      0.9705   3.9003   0.4122   H         1 1      0.0000
@<TRIPOS>BOND
     1     1     2   ar
     2     1     6   ar
     3     1    11    1
     4     2     3   ar
     5     2     7    1
     6     3     4   ar
     7     3     8    1
     8     4     5   ar
     9     4    14    1
    10     5     6   ar
    11     5     9    1
    12     6    10    1
    13    11    12    2
    14    11    13    2
    15    14    15    1
    16    14    23    1
    17    14    33    1
    18    15    16    1
    19    15    17    1
    20    15    18    1
    21    18    19    1
    22    18    25    1
    23    18    31    1
    24    19    20    1
    25    19    21    1
    26    19    22    1
    27    23    24    1
    28    25    26    1
    29    25    27    1
    30    27    28    1
    31    27    29    1
    32    27    30    1
    33    31    32    1
    34    33    37    2
    35    33    38    1
    36    34    35    1
    37    34    36    1
    38    34    38    1
    39    34    39    1
    40    39    40    1
    41    39    41    1
    42    39    42    1
@<TRIPOS>SUBSTRUCTURE
     1 1           1 GROUP             0 ****  ****    0  
@<TRIPOS>MOLECULE
Molecule Name_00120
    42    42     1     0     0
SMALL
NO_CHARGES
****
Generated from the CSD

@<TRIPOS>ATOM
     1 C1       3.4640  -0.2847  -0.2439   C.ar      1 1      0.0000
     2 C2       2.9696  -0.1133   1.0301   C.ar      1 1      0.0000
     3 C3       1.6065  -0.2320   1.2319   C.ar      1 1      0.0000
     4 C4       0.7397  -0.5152   0.1823   C.ar      1 1      0.0000
     5 C5       1.2822  -0.6840  -1.0868   C.ar      1 1      0.0000
     6 C6       2.6421  -0.5699  -1.3115   C.ar      1 1      0.0000
     7 H7       3.6351   0.1098   1.8575   H         1 1      0.0000
     8 H8       1.2104  -0.1010   2.2330   H         1 1      0.0000
     9 H9       0.6284  -0.9109  -1.9223   H         1 1      0.0000
    10 H10      3.0525  -0.7023  -2.3071   H         1 1      0.0000
    11 N11      4.9089  -0.1599  -0.4703   N.pl3     1 1      0.0000
    12 O12      5.3318  -0.3145  -1.6054   O.2       1 1      0.0000
    13 O13      5.6244   0.0931   0.4865   O.2       1 1      0.0000
    14 CL3     -0.7677  -0.6342   0.4113   C.3       1 1      0.0000
    15 CL1     -1.5239  -0.7384  -0.9435   C.3       1 1      0.0000
    16 H16     -1.4889   0.2383  -1.4410   H         1 1      0.0000
    17 H17     -0.9822  -1.4423  -1.5874   H         1 1      0.0000
    18 CL      -2.9920  -1.1931  -0.8671   C.3       1 1      0.0000
    19 CL2     -3.0406  -2.6206  -0.3538   C.3       1 1      0.0000
    20 H20     -3.7924  -3.1973  -0.8886   H         1 1      0.0000
    21 H21     -2.0788  -3.1113  -0.4872   H         1 1      0.0000
    22 H22     -3.2877  -2.6414   0.7055   H         1 1      0.0000
    23 OL2     -0.9964  -1.7874   1.2116   O.3       1 1      0.0000
    24 H24     -1.3502  -1.5110   2.0928   H         1 1      0.0000
    25 N25     -3.7306  -0.3546   0.0404   N.3       1 1      0.0000
    26 H26     -3.2812  -0.4327   0.9527   H         1 1      0.0000
    27 C27     -3.8041   1.0716  -0.2813   C.3       1 1      0.0000
    28 H28     -4.6627   1.2800  -0.9163   H         1 1      0.0000
    29 H29     -3.8999   1.6668   0.6244   H         1 1      0.0000
    30 H30     -2.9078   1.3953  -0.8063   H         1 1      0.0000
    31 OL1     -3.5551  -1.1942  -2.1735   O.3       1 1      0.0000
    32 H32     -4.4910  -1.5108  -2.1277   H         1 1      0.0000
    33 CL4     -1.1601   0.6360   1.1923   C.2       1 1      0.0000
    34 C34     -1.2469   3.0056   1.1315   C.3       1 1      0.0000
    35 H35     -2.3158   3.0394   1.3759   H         1 1      0.0000
    36 H36     -0.6867   3.1168   2.0681   H         1 1      0.0000
    37 OL3     -1.6286   0.6171   2.2971   O.2       1 1      0.0000
    38 OL4     -0.9152   1.7373   0.4929   O.3       1 1      0.0000
    39 C39     -0.9010   4.0985   0.1953   C.3       1 1      0.0000
    40 H40     -1.4602   4.0025  -0.7330   H         1 1      0.0000
    41 H41     -1.1325   5.0679   0.6317   H         1 1      0.0000
    42 H42      0.1601   4.0794  -0.0446   H         1 1      0.0000
@<TRIPOS>BOND
     1     1     2   ar
     2     1     6   ar
     3     1    11    1
     4     2     3   ar
     5     2     7    1
     6     3     4   ar
     7     3     8    1
     8     4     5   ar
     9     4    14    1
    10     5     6   ar
    11     5     9    1
    12     6    10    1
    13    11    12    2
    14    11    13    2
    15    14    15    1
    16    14    23    1
    17    14    33    1
    18    15    16    1
    19    15    17    1
    20    15    18    1
    21    18    19    1
    22    18    25    1
    23    18    31    1
    24    19    20    1
    25    19    21    1
    26    19    22    1
    27    23    24    1
    28    25    26    1
    29    25    27    1
    30    27    28    1
    31    27    29    1
    32    27    30    1
    33    31    32    1
    34    33    37    2
    35    33    38    1
    36    34    35    1
    37    34    36    1
    38    34    38    1
    39    34    39    1
    40    39    40    1
    41    39    41    1
    42    39    42    1
@<TRIPOS>SUBSTRUCTURE
     1 1           1 GROUP             0 ****  ****    0  
@<TRIPOS>MOLECULE
Molecule Name_00121
    42    42     1     0     0
SMALL
NO_CHARGES
****
Generated from the CSD

@<TRIPOS>ATOM
     1 C1       2.9626  -0.4657  -0.2757   C.ar      1 1      0.0000
     2 C2       2.4498  -0.8055   0.9565   C.ar      1 1      0.0000
     3 C3       1.1140  -0.5519   1.2097   C.ar      1 1      0.0000
     4 C4       0.2932   0.0352   0.2532   C.ar      1 1      0.0000
     5 C5       0.8515   0.3588  -0.9784   C.ar      1 1      0.0000
     6 C6       2.1847   0.1140  -1.2532   C.ar      1 1      0.0000
     7 H7       3.0801  -1.2625   1.7122   H         1 1      0.0000
     8 H8       0.7027  -0.8194   2.1769   H         1 1      0.0000
     9 H9       0.2316   0.8130  -1.7442   H         1 1      0.0000
    10 H10      2.6085   0.3729  -2.2178   H         1 1      0.0000
    11 N11      4.3793  -0.7291  -0.5553   N.pl3     1 1      0.0000
    12 O12      4.8189  -0.4221  -1.6524   O.2       1 1      0.0000
    13 O13      5.0557  -1.2437   0.3216   O.2       1 1      0.0000
    14 CL3     -1.1804   0.3226   0.5444   C.3       1 1      0.0000
    15 CL1     -2.0995  -0.5120  -0.3922   C.3       1 1      0.0000
    16 H16     -3.1418  -0.2251  -0.2076   H         1 1      0.0000
    17 H17     -1.8737  -0.2382  -1.4302   H         1 1      0.0000
    18 CL      -1.9863  -2.0415  -0.2657   C.3       1 1      0.0000
    19 CL2     -2.3115  -2.4443   1.1610   C.3       1 1      0.0000
    20 H20     -2.6973  -3.4609   1.1964   H         1 1      0.0000
    21 H21     -1.4229  -2.3970   1.7871   H         1 1      0.0000
    22 H22     -3.0620  -1.7819   1.5872   H         1 1      0.0000
    23 OL2     -1.4238   0.0066   1.9094   O.3       1 1      0.0000
    24 H24     -2.3629   0.2205   2.1339   H         1 1      0.0000
    25 N25     -2.9209  -2.6887  -1.1487   N.3       1 1      0.0000
    26 H26     -3.5626  -3.2246  -0.5644   H         1 1      0.0000
    27 C27     -3.7377  -1.8247  -2.0027   C.3       1 1      0.0000
    28 H28     -3.1087  -1.1978  -2.6312   H         1 1      0.0000
    29 H29     -4.3795  -2.4182  -2.6505   H         1 1      0.0000
    30 H30     -4.3705  -1.1752  -1.4015   H         1 1      0.0000
    31 OL1     -0.6446  -2.4389  -0.5218   O.3       1 1      0.0000
    32 H32     -0.5662  -3.4191  -0.4156   H         1 1      0.0000
    33 CL4     -1.3505   1.8377   0.3153   C.2       1 1      0.0000
    34 C34     -1.3287   3.9737   1.3467   C.3       1 1      0.0000
    35 H35     -2.1163   4.2344   0.6290   H         1 1      0.0000
    36 H36     -1.6131   4.3910   2.3205   H         1 1      0.0000
    37 OL3     -1.5976   2.3234  -0.7540   O.2       1 1      0.0000
    38 OL4     -1.1903   2.5250   1.4396   O.3       1 1      0.0000
    39 C39     -0.0310   4.5345   0.9087   C.3       1 1      0.0000
    40 H40      0.2543   4.1341  -0.0619   H         1 1      0.0000
    41 H41     -0.0874   5.6178   0.8252   H         1 1      0.0000
    42 H42      0.7548   4.2899   1.6204   H         1 1      0.0000
@<TRIPOS>BOND
     1     1     2   ar
     2     1     6   ar
     3     1    11    1
     4     2     3   ar
     5     2     7    1
     6     3     4   ar
     7     3     8    1
     8     4     5   ar
     9     4    14    1
    10     5     6   ar
    11     5     9    1
    12     6    10    1
    13    11    12    2
    14    11    13    2
    15    14    15    1
    16    14    23    1
    17    14    33    1
    18    15    16    1
    19    15    17    1
    20    15    18    1
    21    18    19    1
    22    18    25    1
    23    18    31    1
    24    19    20    1
    25    19    21    1
    26    19    22    1
    27    23    24    1
    28    25    26    1
    29    25    27    1
    30    27    28    1
    31    27    29    1
    32    27    30    1
    33    31    32    1
    34    33    37    2
    35    33    38    1
    36    34    35    1
    37    34    36    1
    38    34    38    1
    39    34    39    1
    40    39    40    1
    41    39    41    1
    42    39    42    1
@<TRIPOS>SUBSTRUCTURE
     1 1           1 GROUP             0 ****  ****    0  
@<TRIPOS>MOLECULE
Molecule Name_00122
    42    42     1     0     0
SMALL
NO_CHARGES
****
Generated from the CSD

@<TRIPOS>ATOM
     1 C1       2.8802  -0.5108  -0.2767   C.ar      1 1      0.0000
     2 C2       2.3549  -0.8333   0.9548   C.ar      1 1      0.0000
     3 C3       1.0325  -0.5202   1.2123   C.ar      1 1      0.0000
     4 C4       0.2375   0.1088   0.2607   C.ar      1 1      0.0000
     5 C5       0.8076   0.4130  -0.9705   C.ar      1 1      0.0000
     6 C6       2.1277   0.1089  -1.2495   C.ar      1 1      0.0000
     7 H7       2.9651  -1.3226   1.7068   H         1 1      0.0000
     8 H8       0.6114  -0.7736   2.1791   H         1 1      0.0000
     9 H9       0.2076   0.8990  -1.7325   H         1 1      0.0000
    10 H10      2.5610   0.3532  -2.2138   H         1 1      0.0000
    11 N11      4.2828  -0.8373  -0.5608   N.pl3     1 1      0.0000
    12 O12      4.7339  -0.5450  -1.6573   O.2       1 1      0.0000
    13 O13      4.9367  -1.3869   0.3119   O.2       1 1      0.0000
    14 CL3     -1.2208   0.4617   0.5566   C.3       1 1      0.0000
    15 CL1     -2.1790  -0.3250  -0.3822   C.3       1 1      0.0000
    16 H16     -3.2070   0.0062  -0.1918   H         1 1      0.0000
    17 H17     -1.9450  -0.0541  -1.4191   H         1 1      0.0000
    18 CL      -2.1328  -1.8589  -0.2667   C.3       1 1      0.0000
    19 CL2     -2.4455  -2.2557   1.1645   C.3       1 1      0.0000
    20 H20     -2.8843  -3.2506   1.2017   H         1 1      0.0000
    21 H21     -1.5412  -2.2613   1.7695   H         1 1      0.0000
    22 H22     -3.1492  -1.5578   1.6132   H         1 1      0.0000
    23 OL2     -1.4757   0.1501   1.9205   O.3       1 1      0.0000
    24 H24     -2.4036   0.4055   2.1482   H         1 1      0.0000
    25 N25     -3.1143  -2.4573  -1.1329   N.3       1 1      0.0000
    26 H26     -3.5832  -1.6963  -1.6243   H         1 1      0.0000
    27 C27     -2.6245  -3.3882  -2.1510   C.3       1 1      0.0000
    28 H28     -2.1112  -4.2293  -1.6896   H         1 1      0.0000
    29 H29     -3.4483  -3.7785  -2.7450   H         1 1      0.0000
    30 H30     -1.9270  -2.8928  -2.8231   H         1 1      0.0000
    31 OL1     -0.8162  -2.3150  -0.5538   O.3       1 1      0.0000
    32 H32     -0.7520  -3.2812  -0.3528   H         1 1      0.0000
    33 CL4     -1.3218   1.9843   0.3357   C.2       1 1      0.0000
    34 C34     -1.2003   4.1116   1.3780   C.3       1 1      0.0000
    35 H35     -1.9766   4.4118   0.6634   H         1 1      0.0000
    36 H36     -1.4634   4.5363   2.3546   H         1 1      0.0000
    37 OL3     -1.5486   2.4863  -0.7306   O.2       1 1      0.0000
    38 OL4     -1.1281   2.6576   1.4632   O.3       1 1      0.0000
    39 C39      0.1208   4.6147   0.9400   C.3       1 1      0.0000
    40 H40      0.3856   4.2068  -0.0333   H         1 1      0.0000
    41 H41      0.1138   5.6999   0.8622   H         1 1      0.0000
    42 H42      0.8960   4.3307   1.6487   H         1 1      0.0000
@<TRIPOS>BOND
     1     1     2   ar
     2     1     6   ar
     3     1    11    1
     4     2     3   ar
     5     2     7    1
     6     3     4   ar
     7     3     8    1
     8     4     5   ar
     9     4    14    1
    10     5     6   ar
    11     5     9    1
    12     6    10    1
    13    11    12    2
    14    11    13    2
    15    14    15    1
    16    14    23    1
    17    14    33    1
    18    15    16    1
    19    15    17    1
    20    15    18    1
    21    18    19    1
    22    18    25    1
    23    18    31    1
    24    19    20    1
    25    19    21    1
    26    19    22    1
    27    23    24    1
    28    25    26    1
    29    25    27    1
    30    27    28    1
    31    27    29    1
    32    27    30    1
    33    31    32    1
    34    33    37    2
    35    33    38    1
    36    34    35    1
    37    34    36    1
    38    34    38    1
    39    34    39    1
    40    39    40    1
    41    39    41    1
    42    39    42    1
@<TRIPOS>SUBSTRUCTURE
     1 1           1 GROUP             0 ****  ****    0  
@<TRIPOS>MOLECULE
Molecule Name_00123
    42    42     1     0     0
SMALL
NO_CHARGES
****
Generated from the CSD

@<TRIPOS>ATOM
     1 C1       3.0616  -0.6307  -0.2357   C.ar      1 1      0.0000
     2 C2       2.5110  -0.9071   0.9960   C.ar      1 1      0.0000
     3 C3       1.1878  -0.5720   1.2191   C.ar      1 1      0.0000
     4 C4       0.4168   0.0335   0.2331   C.ar      1 1      0.0000
     5 C5       1.0119   0.2911  -0.9968   C.ar      1 1      0.0000
     6 C6       2.3334  -0.0356  -1.2417   C.ar      1 1      0.0000
     7 H7       3.1024  -1.3776   1.7745   H         1 1      0.0000
     8 H8       0.7468  -0.7892   2.1858   H         1 1      0.0000
     9 H9       0.4309   0.7580  -1.7851   H         1 1      0.0000
    10 H10      2.7863   0.1723  -2.2055   H         1 1      0.0000
    11 N11      4.4654  -0.9809  -0.4835   N.pl3     1 1      0.0000
    12 O12      4.9390  -0.7294  -1.5806   O.2       1 1      0.0000
    13 O13      5.0977  -1.5082   0.4184   O.2       1 1      0.0000
    14 CL3     -1.0427   0.4110   0.4908   C.3       1 1      0.0000
    15 CL1     -1.9926  -0.3962  -0.4389   C.3       1 1      0.0000
    16 H16     -3.0197  -0.0463  -0.2803   H         1 1      0.0000
    17 H17     -1.7352  -0.1644  -1.4798   H         1 1      0.0000
    18 CL      -1.9681  -1.9256  -0.2697   C.3       1 1      0.0000
    19 CL2     -2.3380  -2.2699   1.1614   C.3       1 1      0.0000
    20 H20     -2.7812  -3.2619   1.2172   H         1 1      0.0000
    21 H21     -1.4582  -2.2552   1.8014   H         1 1      0.0000
    22 H22     -3.0566  -1.5549   1.5567   H         1 1      0.0000
    23 OL2     -1.3251   0.1471   1.8594   O.3       1 1      0.0000
    24 H24     -2.2541   0.4194   2.0618   H         1 1      0.0000
    25 N25     -2.9236  -2.5435  -1.1512   N.3       1 1      0.0000
    26 H26     -3.6038  -3.0262  -0.5640   H         1 1      0.0000
    27 C27     -3.6766  -1.6590  -2.0421   C.3       1 1      0.0000
    28 H28     -3.0033  -1.0860  -2.6761   H         1 1      0.0000
    29 H29     -4.3406  -2.2333  -2.6847   H         1 1      0.0000
    30 H30     -4.2811  -0.9587  -1.4695   H         1 1      0.0000
    31 OL1     -0.6470  -2.4046  -0.4917   O.3       1 1      0.0000
    32 H32     -0.6259  -3.3843  -0.3580   H         1 1      0.0000
    33 CL4     -1.1231   1.9265   0.2185   C.2       1 1      0.0000
    34 C34     -0.9969   4.0855   1.1926   C.3       1 1      0.0000
    35 H35     -0.4289   4.5630   2.0005   H         1 1      0.0000
    36 H36     -0.5487   4.3959   0.2407   H         1 1      0.0000
    37 OL3     -1.3254   2.3954  -0.8676   O.2       1 1      0.0000
    38 OL4     -0.9421   2.6345   1.3266   O.3       1 1      0.0000
    39 C39     -2.4162   4.5013   1.2498   C.3       1 1      0.0000
    40 H40     -2.8666   4.2069   2.1954   H         1 1      0.0000
    41 H41     -2.5059   5.5813   1.1533   H         1 1      0.0000
    42 H42     -2.9857   4.0408   0.4452   H         1 1      0.0000
@<TRIPOS>BOND
     1     1     2   ar
     2     1     6   ar
     3     1    11    1
     4     2     3   ar
     5     2     7    1
     6     3     4   ar
     7     3     8    1
     8     4     5   ar
     9     4    14    1
    10     5     6   ar
    11     5     9    1
    12     6    10    1
    13    11    12    2
    14    11    13    2
    15    14    15    1
    16    14    23    1
    17    14    33    1
    18    15    16    1
    19    15    17    1
    20    15    18    1
    21    18    19    1
    22    18    25    1
    23    18    31    1
    24    19    20    1
    25    19    21    1
    26    19    22    1
    27    23    24    1
    28    25    26    1
    29    25    27    1
    30    27    28    1
    31    27    29    1
    32    27    30    1
    33    31    32    1
    34    33    37    2
    35    33    38    1
    36    34    35    1
    37    34    36    1
    38    34    38    1
    39    34    39    1
    40    39    40    1
    41    39    41    1
    42    39    42    1
@<TRIPOS>SUBSTRUCTURE
     1 1           1 GROUP             0 ****  ****    0  
@<TRIPOS>MOLECULE
Molecule Name_00124
    42    42     1     0     0
SMALL
NO_CHARGES
****
Generated from the CSD

@<TRIPOS>ATOM
     1 C1       2.9774  -0.6742  -0.2367   C.ar      1 1      0.0000
     2 C2       2.4150  -0.9344   0.9931   C.ar      1 1      0.0000
     3 C3       1.1082  -0.5419   1.2191   C.ar      1 1      0.0000
     4 C4       0.3651   0.1047   0.2378   C.ar      1 1      0.0000
     5 C5       0.9712   0.3442  -0.9905   C.ar      1 1      0.0000
     6 C6       2.2766  -0.0397  -1.2382   C.ar      1 1      0.0000
     7 H7       2.9847  -1.4366   1.7680   H         1 1      0.0000
     8 H8       0.6579  -0.7461   2.1844   H         1 1      0.0000
     9 H9       0.4116   0.8424  -1.7751   H         1 1      0.0000
    10 H10      2.7384   0.1547  -2.2005   H         1 1      0.0000
    11 N11      4.3641  -1.0851  -0.4875   N.pl3     1 1      0.0000
    12 O12      4.8485  -0.8473  -1.5830   O.2       1 1      0.0000
    13 O13      4.9721  -1.6467   0.4103   O.2       1 1      0.0000
    14 CL3     -1.0760   0.5454   0.4987   C.3       1 1      0.0000
    15 CL1     -2.0611  -0.2117  -0.4365   C.3       1 1      0.0000
    16 H16     -3.0720   0.1808  -0.2728   H         1 1      0.0000
    17 H17     -1.7955   0.0184  -1.4757   H         1 1      0.0000
    18 CL      -2.1024  -1.7421  -0.2811   C.3       1 1      0.0000
    19 CL2     -2.4599  -2.0831   1.1539   C.3       1 1      0.0000
    20 H20     -2.9541  -3.0509   1.2087   H         1 1      0.0000
    21 H21     -1.5674  -2.1227   1.7748   H         1 1      0.0000
    22 H22     -3.1309  -1.3357   1.5722   H         1 1      0.0000
    23 OL2     -1.3699   0.2845   1.8655   O.3       1 1      0.0000
    24 H24     -2.2858   0.5968   2.0701   H         1 1      0.0000
    25 N25     -3.1015  -2.3080  -1.1491   N.3       1 1      0.0000
    26 H26     -3.5193  -1.5355  -1.6679   H         1 1      0.0000
    27 C27     -2.6479  -3.2912  -2.1343   C.3       1 1      0.0000
    28 H28     -2.1899  -4.1469  -1.6425   H         1 1      0.0000
    29 H29     -3.4824  -3.6509  -2.7326   H         1 1      0.0000
    30 H30     -1.9130  -2.8531  -2.8063   H         1 1      0.0000
    31 OL1     -0.8088  -2.2778  -0.5332   O.3       1 1      0.0000
    32 H32     -0.8018  -3.2405  -0.3065   H         1 1      0.0000
    33 CL4     -1.0883   2.0649   0.2374   C.2       1 1      0.0000
    34 C34     -0.8654   4.2090   1.2271   C.3       1 1      0.0000
    35 H35     -0.2765   4.6546   2.0382   H         1 1      0.0000
    36 H36     -0.4036   4.5059   0.2773   H         1 1      0.0000
    37 OL3     -1.2694   2.5503  -0.8452   O.2       1 1      0.0000
    38 OL4     -0.8757   2.7561   1.3506   O.3       1 1      0.0000
    39 C39     -2.2646   4.6876   1.2877   C.3       1 1      0.0000
    40 H40     -2.7277   4.4069   2.2314   H         1 1      0.0000
    41 H41     -2.3057   5.7712   1.1992   H         1 1      0.0000
    42 H42     -2.8542   4.2589   0.4800   H         1 1      0.0000
@<TRIPOS>BOND
     1     1     2   ar
     2     1     6   ar
     3     1    11    1
     4     2     3   ar
     5     2     7    1
     6     3     4   ar
     7     3     8    1
     8     4     5   ar
     9     4    14    1
    10     5     6   ar
    11     5     9    1
    12     6    10    1
    13    11    12    2
    14    11    13    2
    15    14    15    1
    16    14    23    1
    17    14    33    1
    18    15    16    1
    19    15    17    1
    20    15    18    1
    21    18    19    1
    22    18    25    1
    23    18    31    1
    24    19    20    1
    25    19    21    1
    26    19    22    1
    27    23    24    1
    28    25    26    1
    29    25    27    1
    30    27    28    1
    31    27    29    1
    32    27    30    1
    33    31    32    1
    34    33    37    2
    35    33    38    1
    36    34    35    1
    37    34    36    1
    38    34    38    1
    39    34    39    1
    40    39    40    1
    41    39    41    1
    42    39    42    1
@<TRIPOS>SUBSTRUCTURE
     1 1           1 GROUP             0 ****  ****    0  
@<TRIPOS>MOLECULE
Molecule Name_00125
    42    42     1     0     0
SMALL
NO_CHARGES
****
Generated from the CSD

@<TRIPOS>ATOM
     1 C1       2.9375  -0.4419  -0.3179   C.ar      1 1      0.0000
     2 C2       2.4001  -0.8546   0.8811   C.ar      1 1      0.0000
     3 C3       1.0688  -0.5816   1.1379   C.ar      1 1      0.0000
     4 C4       0.2766   0.0959   0.2176   C.ar      1 1      0.0000
     5 C5       0.8592   0.4910  -0.9815   C.ar      1 1      0.0000
     6 C6       2.1884   0.2285  -1.2592   C.ar      1 1      0.0000
     7 H7       3.0079  -1.3825   1.6084   H         1 1      0.0000
     8 H8       0.6381  -0.9060   2.0789   H         1 1      0.0000
     9 H9       0.2617   1.0166  -1.7189   H         1 1      0.0000
    10 H10      2.6313   0.5438  -2.1981   H         1 1      0.0000
    11 N11      4.3498  -0.7251  -0.6009   N.pl3     1 1      0.0000
    12 O12      4.8115  -0.3527  -1.6683   O.2       1 1      0.0000
    13 O13      5.0006  -1.3205   0.2436   O.2       1 1      0.0000
    14 CL3     -1.1919   0.4037   0.5133   C.3       1 1      0.0000
    15 CL1     -2.1221  -0.3348  -0.4906   C.3       1 1      0.0000
    16 H16     -3.1643  -0.1097  -0.2342   H         1 1      0.0000
    17 H17     -1.9452   0.0775  -1.4917   H         1 1      0.0000
    18 CL      -1.9592  -1.8631  -0.5673   C.3       1 1      0.0000
    19 CL2     -2.1661  -2.4515   0.8163   C.3       1 1      0.0000
    20 H20     -2.1912  -3.5384   0.7733   H         1 1      0.0000
    21 H21     -1.3600  -2.1573   1.4851   H         1 1      0.0000
    22 H22     -3.1049  -2.1075   1.2453   H         1 1      0.0000
    23 OL2     -1.4611  -0.0024   1.8494   O.3       1 1      0.0000
    24 H24     -2.3967   0.2216   2.0788   H         1 1      0.0000
    25 N25     -2.9395  -2.4284  -1.4569   N.3       1 1      0.0000
    26 H26     -2.4310  -2.9613  -2.1625   H         1 1      0.0000
    27 C27     -3.9303  -3.3312  -0.8685   C.3       1 1      0.0000
    28 H28     -4.4412  -2.8530  -0.0354   H         1 1      0.0000
    29 H29     -4.6779  -3.6165  -1.6057   H         1 1      0.0000
    30 H30     -3.4551  -4.2376  -0.4994   H         1 1      0.0000
    31 OL1     -0.6302  -2.1773  -0.9659   O.3       1 1      0.0000
    32 H32     -0.5181  -3.1596  -0.9905   H         1 1      0.0000
    33 CL4     -1.3169   1.9357   0.3924   C.2       1 1      0.0000
    34 C34     -1.2487   3.9905   1.5754   C.3       1 1      0.0000
    35 H35     -2.0197   4.3245   0.8702   H         1 1      0.0000
    36 H36     -1.5335   4.3447   2.5738   H         1 1      0.0000
    37 OL3     -1.5370   2.5037  -0.6416   O.2       1 1      0.0000
    38 OL4     -1.1518   2.5355   1.5650   O.3       1 1      0.0000
    39 C39      0.0696   4.5439   1.1927   C.3       1 1      0.0000
    40 H40      0.3557   4.2063   0.1988   H         1 1      0.0000
    41 H41      0.0443   5.6316   1.1870   H         1 1      0.0000
    42 H42      0.8392   4.2264   1.8931   H         1 1      0.0000
@<TRIPOS>BOND
     1     1     2   ar
     2     1     6   ar
     3     1    11    1
     4     2     3   ar
     5     2     7    1
     6     3     4   ar
     7     3     8    1
     8     4     5   ar
     9     4    14    1
    10     5     6   ar
    11     5     9    1
    12     6    10    1
    13    11    12    2
    14    11    13    2
    15    14    15    1
    16    14    23    1
    17    14    33    1
    18    15    16    1
    19    15    17    1
    20    15    18    1
    21    18    19    1
    22    18    25    1
    23    18    31    1
    24    19    20    1
    25    19    21    1
    26    19    22    1
    27    23    24    1
    28    25    26    1
    29    25    27    1
    30    27    28    1
    31    27    29    1
    32    27    30    1
    33    31    32    1
    34    33    37    2
    35    33    38    1
    36    34    35    1
    37    34    36    1
    38    34    38    1
    39    34    39    1
    40    39    40    1
    41    39    41    1
    42    39    42    1
@<TRIPOS>SUBSTRUCTURE
     1 1           1 GROUP             0 ****  ****    0  
@<TRIPOS>MOLECULE
Molecule Name_00126
    42    42     1     0     0
SMALL
NO_CHARGES
****
Generated from the CSD

@<TRIPOS>ATOM
     1 C1       3.0395  -0.6047  -0.2792   C.ar      1 1      0.0000
     2 C2       2.4609  -0.9590   0.9192   C.ar      1 1      0.0000
     3 C3       1.1429  -0.6070   1.1469   C.ar      1 1      0.0000
     4 C4       0.4045   0.0917   0.1983   C.ar      1 1      0.0000
     5 C5       1.0272   0.4260  -0.9992   C.ar      1 1      0.0000
     6 C6       2.3440   0.0840  -1.2480   C.ar      1 1      0.0000
     7 H7       3.0267  -1.5027   1.6686   H         1 1      0.0000
     8 H8       0.6799  -0.8850   2.0874   H         1 1      0.0000
     9 H9       0.4718   0.9665  -1.7584   H         1 1      0.0000
    10 H10      2.8187   0.3523  -2.1860   H         1 1      0.0000
    11 N11      4.4381  -0.9721  -0.5315   N.pl3     1 1      0.0000
    12 O12      4.9368  -0.6508  -1.5989   O.2       1 1      0.0000
    13 O13      5.0412  -1.5827   0.3372   O.2       1 1      0.0000
    14 CL3     -1.0492   0.4871   0.4616   C.3       1 1      0.0000
    15 CL1     -2.0029  -0.2220  -0.5414   C.3       1 1      0.0000
    16 H16     -3.0349   0.0663  -0.3080   H         1 1      0.0000
    17 H17     -1.7874   0.1564  -1.5482   H         1 1      0.0000
    18 CL      -1.9241  -1.7584  -0.5810   C.3       1 1      0.0000
    19 CL2     -2.1855  -2.3021   0.8116   C.3       1 1      0.0000
    20 H20     -2.2704  -3.3866   0.7926   H         1 1      0.0000
    21 H21     -1.3750  -2.0374   1.4874   H         1 1      0.0000
    22 H22     -3.1104  -1.8968   1.2166   H         1 1      0.0000
    23 OL2     -1.3618   0.1277   1.8016   O.3       1 1      0.0000
    24 H24     -2.2870   0.4083   2.0099   H         1 1      0.0000
    25 N25     -2.9201  -2.2891  -1.4745   N.3       1 1      0.0000
    26 H26     -2.4309  -2.8656  -2.1591   H         1 1      0.0000
    27 C27     -3.9689  -3.1218  -0.8832   C.3       1 1      0.0000
    28 H28     -4.4655  -2.5968  -0.0699   H         1 1      0.0000
    29 H29     -4.7194  -3.3825  -1.6266   H         1 1      0.0000
    30 H30     -3.5508  -4.0443  -0.4858   H         1 1      0.0000
    31 OL1     -0.6085  -2.1548  -0.9495   O.3       1 1      0.0000
    32 H32     -0.5508  -3.1421  -0.9502   H         1 1      0.0000
    33 CL4     -1.0867   2.0204   0.3044   C.2       1 1      0.0000
    34 C34     -0.9230   4.0953   1.4422   C.3       1 1      0.0000
    35 H35     -0.3572   4.4949   2.2927   H         1 1      0.0000
    36 H36     -0.4507   4.4650   0.5237   H         1 1      0.0000
    37 OL3     -1.2583   2.5755  -0.7457   O.2       1 1      0.0000
    38 OL4     -0.9071   2.6374   1.4660   O.3       1 1      0.0000
    39 C39     -2.3321   4.5429   1.5091   C.3       1 1      0.0000
    40 H40     -2.8061   4.1896   2.4225   H         1 1      0.0000
    41 H41     -2.3929   5.6291   1.4940   H         1 1      0.0000
    42 H42     -2.8991   4.1599   0.6631   H         1 1      0.0000
@<TRIPOS>BOND
     1     1     2   ar
     2     1     6   ar
     3     1    11    1
     4     2     3   ar
     5     2     7    1
     6     3     4   ar
     7     3     8    1
     8     4     5   ar
     9     4    14    1
    10     5     6   ar
    11     5     9    1
    12     6    10    1
    13    11    12    2
    14    11    13    2
    15    14    15    1
    16    14    23    1
    17    14    33    1
    18    15    16    1
    19    15    17    1
    20    15    18    1
    21    18    19    1
    22    18    25    1
    23    18    31    1
    24    19    20    1
    25    19    21    1
    26    19    22    1
    27    23    24    1
    28    25    26    1
    29    25    27    1
    30    27    28    1
    31    27    29    1
    32    27    30    1
    33    31    32    1
    34    33    37    2
    35    33    38    1
    36    34    35    1
    37    34    36    1
    38    34    38    1
    39    34    39    1
    40    39    40    1
    41    39    41    1
    42    39    42    1
@<TRIPOS>SUBSTRUCTURE
     1 1           1 GROUP             0 ****  ****    0  
@<TRIPOS>MOLECULE
Molecule Name_00127
    42    42     1     0     0
SMALL
NO_CHARGES
****
Generated from the CSD

@<TRIPOS>ATOM
     1 C1       3.5934  -0.3440  -0.2651   C.ar      1 1      0.0000
     2 C2       2.7992  -0.3807  -1.3896   C.ar      1 1      0.0000
     3 C3       1.4255  -0.3568  -1.2301   C.ar      1 1      0.0000
     4 C4       0.8426  -0.2996   0.0309   C.ar      1 1      0.0000
     5 C5       1.6821  -0.2605   1.1387   C.ar      1 1      0.0000
     6 C6       3.0583  -0.2834   1.0024   C.ar      1 1      0.0000
     7 H7       3.2415  -0.4272  -2.3792   H         1 1      0.0000
     8 H8       0.7939  -0.3826  -2.1114   H         1 1      0.0000
     9 H9       1.2529  -0.2104   2.1338   H         1 1      0.0000
    10 H10      3.7022  -0.2541   1.8752   H         1 1      0.0000
    11 N11      5.0526  -0.3701  -0.4221   N.pl3     1 1      0.0000
    12 O12      5.7431  -0.3370   0.5846   O.2       1 1      0.0000
    13 O13      5.5116  -0.4237  -1.5524   O.2       1 1      0.0000
    14 CL3     -0.6773  -0.2844   0.1998   C.3       1 1      0.0000
    15 CL1     -1.3619  -1.1467  -0.8985   C.3       1 1      0.0000
    16 H16     -1.0712  -0.7578  -1.8819   H         1 1      0.0000
    17 H17     -0.9666  -2.1678  -0.8313   H         1 1      0.0000
    18 CL      -2.8977  -1.2238  -0.8404   C.3       1 1      0.0000
    19 CL2     -3.3519  -2.5180  -1.4902   C.3       1 1      0.0000
    20 H20     -4.0739  -2.3205  -2.2797   H         1 1      0.0000
    21 H21     -2.5077  -3.0471  -1.9274   H         1 1      0.0000
    22 H22     -3.8204  -3.1732  -0.7587   H         1 1      0.0000
    23 OL2     -0.9758  -0.7833   1.4977   O.3       1 1      0.0000
    24 H24     -0.8896  -1.7685   1.4990   H         1 1      0.0000
    25 N25     -3.3495  -1.2142   0.5263   N.3       1 1      0.0000
    26 H26     -3.0381  -0.3345   0.9380   H         1 1      0.0000
    27 C27     -4.7931  -1.3062   0.7509   C.3       1 1      0.0000
    28 H28     -5.0575  -2.2753   1.1688   H         1 1      0.0000
    29 H29     -5.1254  -0.5362   1.4441   H         1 1      0.0000
    30 H30     -5.3375  -1.1796  -0.1825   H         1 1      0.0000
    31 OL1     -3.4536  -0.1540  -1.5955   O.3       1 1      0.0000
    32 H32     -4.4262  -0.2979  -1.7026   H         1 1      0.0000
    33 CL4     -1.0811   1.2002   0.0996   C.2       1 1      0.0000
    34 C34     -1.5054   3.1858   1.3258   C.3       1 1      0.0000
    35 H35     -0.7938   3.7798   0.7391   H         1 1      0.0000
    36 H36     -2.5001   3.3253   0.8847   H         1 1      0.0000
    37 OL3     -1.3174   1.7548  -0.9381   O.2       1 1      0.0000
    38 OL4     -1.1326   1.7764   1.2944   O.3       1 1      0.0000
    39 C39     -1.5039   3.6325   2.7368   C.3       1 1      0.0000
    40 H40     -0.5180   3.5079   3.1798   H         1 1      0.0000
    41 H41     -1.7776   4.6831   2.8091   H         1 1      0.0000
    42 H42     -2.2150   3.0558   3.3247   H         1 1      0.0000
@<TRIPOS>BOND
     1     1     2   ar
     2     1     6   ar
     3     1    11    1
     4     2     3   ar
     5     2     7    1
     6     3     4   ar
     7     3     8    1
     8     4     5   ar
     9     4    14    1
    10     5     6   ar
    11     5     9    1
    12     6    10    1
    13    11    12    2
    14    11    13    2
    15    14    15    1
    16    14    23    1
    17    14    33    1
    18    15    16    1
    19    15    17    1
    20    15    18    1
    21    18    19    1
    22    18    25    1
    23    18    31    1
    24    19    20    1
    25    19    21    1
    26    19    22    1
    27    23    24    1
    28    25    26    1
    29    25    27    1
    30    27    28    1
    31    27    29    1
    32    27    30    1
    33    31    32    1
    34    33    37    2
    35    33    38    1
    36    34    35    1
    37    34    36    1
    38    34    38    1
    39    34    39    1
    40    39    40    1
    41    39    41    1
    42    39    42    1
@<TRIPOS>SUBSTRUCTURE
     1 1           1 GROUP             0 ****  ****    0  
@<TRIPOS>MOLECULE
Molecule Name_00128
    42    42     1     0     0
SMALL
NO_CHARGES
****
Generated from the CSD

@<TRIPOS>ATOM
     1 C1       2.8620  -0.7135  -0.1947   C.ar      1 1      0.0000
     2 C2       1.9825  -0.7482  -1.2539   C.ar      1 1      0.0000
     3 C3       0.6757  -0.3482  -1.0418   C.ar      1 1      0.0000
     4 C4       0.2420   0.0801   0.2079   C.ar      1 1      0.0000
     5 C5       1.1643   0.1026   1.2482   C.ar      1 1      0.0000
     6 C6       2.4760  -0.2929   1.0586   C.ar      1 1      0.0000
     7 H7       2.3079  -1.0821  -2.2337   H         1 1      0.0000
     8 H8      -0.0218  -0.3703  -1.8720   H         1 1      0.0000
     9 H9       0.8531   0.4375   2.2321   H         1 1      0.0000
    10 H10      3.1854  -0.2722   1.8792   H         1 1      0.0000
    11 N11      4.2513  -1.1369  -0.4078   N.pl3     1 1      0.0000
    12 O12      5.0189  -1.1004   0.5412   O.2       1 1      0.0000
    13 O13      4.5781  -1.5070  -1.5247   O.2       1 1      0.0000
    14 CL3     -1.2074   0.5106   0.4374   C.3       1 1      0.0000
    15 CL1     -2.1793  -0.3481  -0.4207   C.3       1 1      0.0000
    16 H16     -3.2018   0.0149  -0.2619   H         1 1      0.0000
    17 H17     -1.9438  -0.1814  -1.4790   H         1 1      0.0000
    18 CL      -2.1552  -1.8644  -0.1587   C.3       1 1      0.0000
    19 CL2     -3.5575  -2.4178  -0.3338   C.3       1 1      0.0000
    20 H20     -3.5401  -3.5047  -0.3812   H         1 1      0.0000
    21 H21     -4.1944  -2.1250   0.4982   H         1 1      0.0000
    22 H22     -4.0071  -2.0458  -1.2521   H         1 1      0.0000
    23 OL2     -1.4898   0.3661   1.8238   O.3       1 1      0.0000
    24 H24     -2.4115   0.6752   2.0054   H         1 1      0.0000
    25 N25     -1.2828  -2.5219  -1.0960   N.3       1 1      0.0000
    26 H26     -1.2809  -3.5137  -0.8578   H         1 1      0.0000
    27 C27     -1.6324  -2.4217  -2.5141   C.3       1 1      0.0000
    28 H28     -1.4162  -1.4259  -2.8952   H         1 1      0.0000
    29 H29     -1.0658  -3.1403  -3.1027   H         1 1      0.0000
    30 H30     -2.6915  -2.6199  -2.6651   H         1 1      0.0000
    31 OL1     -1.7711  -2.1051   1.1897   O.3       1 1      0.0000
    32 H32     -1.7803  -3.0783   1.3654   H         1 1      0.0000
    33 CL4     -1.2549   2.0001   0.0420   C.2       1 1      0.0000
    34 C34     -1.0759   4.2282   0.8357   C.3       1 1      0.0000
    35 H35     -0.3033   4.4974   0.1049   H         1 1      0.0000
    36 H36     -2.0466   4.5252   0.4200   H         1 1      0.0000
    37 OL3     -1.4512   2.3831  -1.0783   O.2       1 1      0.0000
    38 OL4     -1.0532   2.7922   1.0880   O.3       1 1      0.0000
    39 C39     -0.8330   4.9263   2.1180   C.3       1 1      0.0000
    40 H40      0.1330   4.6459   2.5328   H         1 1      0.0000
    41 H41     -0.8412   6.0051   1.9774   H         1 1      0.0000
    42 H42     -1.6008   4.6736   2.8462   H         1 1      0.0000
@<TRIPOS>BOND
     1     1     2   ar
     2     1     6   ar
     3     1    11    1
     4     2     3   ar
     5     2     7    1
     6     3     4   ar
     7     3     8    1
     8     4     5   ar
     9     4    14    1
    10     5     6   ar
    11     5     9    1
    12     6    10    1
    13    11    12    2
    14    11    13    2
    15    14    15    1
    16    14    23    1
    17    14    33    1
    18    15    16    1
    19    15    17    1
    20    15    18    1
    21    18    19    1
    22    18    25    1
    23    18    31    1
    24    19    20    1
    25    19    21    1
    26    19    22    1
    27    23    24    1
    28    25    26    1
    29    25    27    1
    30    27    28    1
    31    27    29    1
    32    27    30    1
    33    31    32    1
    34    33    37    2
    35    33    38    1
    36    34    35    1
    37    34    36    1
    38    34    38    1
    39    34    39    1
    40    39    40    1
    41    39    41    1
    42    39    42    1
@<TRIPOS>SUBSTRUCTURE
     1 1           1 GROUP             0 ****  ****    0  
@<TRIPOS>MOLECULE
Molecule Name_00129
    42    42     1     0     0
SMALL
NO_CHARGES
****
Generated from the CSD

@<TRIPOS>ATOM
     1 C1       3.4729  -0.4586  -0.2078   C.ar      1 1      0.0000
     2 C2       2.6621  -0.5938  -1.3127   C.ar      1 1      0.0000
     3 C3       1.2950  -0.4616  -1.1499   C.ar      1 1      0.0000
     4 C4       0.7348  -0.2006   0.0956   C.ar      1 1      0.0000
     5 C5       1.5907  -0.0682   1.1833   C.ar      1 1      0.0000
     6 C6       2.9607  -0.1963   1.0434   C.ar      1 1      0.0000
     7 H7       3.0866  -0.7993  -2.2899   H         1 1      0.0000
     8 H8       0.6505  -0.5641  -2.0162   H         1 1      0.0000
     9 H9       1.1797   0.1409   2.1653   H         1 1      0.0000
    10 H10      3.6176  -0.0924   1.9007   H         1 1      0.0000
    11 N11      4.9254  -0.5981  -0.3684   N.pl3     1 1      0.0000
    12 O12      5.6308  -0.4755   0.6209   O.2       1 1      0.0000
    13 O13      5.3641  -0.8304  -1.4840   O.2       1 1      0.0000
    14 CL3     -0.7787  -0.0665   0.2697   C.3       1 1      0.0000
    15 CL1     -1.5314  -1.0067  -0.7141   C.3       1 1      0.0000
    16 H16     -1.3122  -0.6887  -1.7405   H         1 1      0.0000
    17 H17     -1.1253  -2.0195  -0.6018   H         1 1      0.0000
    18 CL      -3.0590  -1.0826  -0.5441   C.3       1 1      0.0000
    19 CL2     -3.6972  -1.2937  -1.9049   C.3       1 1      0.0000
    20 H20     -4.7420  -1.5789  -1.8008   H         1 1      0.0000
    21 H21     -3.6521  -0.3824  -2.4975   H         1 1      0.0000
    22 H22     -3.1841  -2.0807  -2.4536   H         1 1      0.0000
    23 OL2     -1.0914  -0.3872   1.6195   O.3       1 1      0.0000
    24 H24     -2.0621  -0.2706   1.7686   H         1 1      0.0000
    25 N25     -3.4152  -2.1886   0.3055   N.3       1 1      0.0000
    26 H26     -4.4299  -2.1725   0.4078   H         1 1      0.0000
    27 C27     -3.0517  -3.5286  -0.1586   C.3       1 1      0.0000
    28 H28     -1.9812  -3.6945  -0.0578   H         1 1      0.0000
    29 H29     -3.5688  -4.2908   0.4205   H         1 1      0.0000
    30 H30     -3.3179  -3.6596  -1.2054   H         1 1      0.0000
    31 OL1     -3.5406   0.1571  -0.0391   O.3       1 1      0.0000
    32 H32     -4.5251   0.1171   0.0461   H         1 1      0.0000
    33 CL4     -1.0879   1.4188  -0.0047   C.2       1 1      0.0000
    34 C34     -1.3681   3.5594   0.9780   C.3       1 1      0.0000
    35 H35     -0.6277   4.0319   0.3207   H         1 1      0.0000
    36 H36     -2.3575   3.7100   0.5289   H         1 1      0.0000
    37 OL3     -1.3019   1.8605  -1.1000   O.2       1 1      0.0000
    38 OL4     -1.0867   2.1350   1.1130   O.3       1 1      0.0000
    39 C39     -1.3194   4.1694   2.3256   C.3       1 1      0.0000
    40 H40     -0.3378   4.0343   2.7749   H         1 1      0.0000
    41 H41     -1.5243   5.2367   2.2735   H         1 1      0.0000
    42 H42     -2.0581   3.7142   2.9820   H         1 1      0.0000
@<TRIPOS>BOND
     1     1     2   ar
     2     1     6   ar
     3     1    11    1
     4     2     3   ar
     5     2     7    1
     6     3     4   ar
     7     3     8    1
     8     4     5   ar
     9     4    14    1
    10     5     6   ar
    11     5     9    1
    12     6    10    1
    13    11    12    2
    14    11    13    2
    15    14    15    1
    16    14    23    1
    17    14    33    1
    18    15    16    1
    19    15    17    1
    20    15    18    1
    21    18    19    1
    22    18    25    1
    23    18    31    1
    24    19    20    1
    25    19    21    1
    26    19    22    1
    27    23    24    1
    28    25    26    1
    29    25    27    1
    30    27    28    1
    31    27    29    1
    32    27    30    1
    33    31    32    1
    34    33    37    2
    35    33    38    1
    36    34    35    1
    37    34    36    1
    38    34    38    1
    39    34    39    1
    40    39    40    1
    41    39    41    1
    42    39    42    1
@<TRIPOS>SUBSTRUCTURE
     1 1           1 GROUP             0 ****  ****    0  
@<TRIPOS>MOLECULE
Molecule Name_00130
    42    42     1     0     0
SMALL
NO_CHARGES
****
Generated from the CSD

@<TRIPOS>ATOM
     1 C1       3.0766  -0.5943  -0.2257   C.ar      1 1      0.0000
     2 C2       2.5555  -1.2120   0.8894   C.ar      1 1      0.0000
     3 C3       1.2425  -0.9510   1.2372   C.ar      1 1      0.0000
     4 C4       0.4528  -0.0844   0.4897   C.ar      1 1      0.0000
     5 C5       1.0183   0.5147  -0.6304   C.ar      1 1      0.0000
     6 C6       2.3290   0.2679  -0.9965   C.ar      1 1      0.0000
     7 H7       3.1617  -1.8889   1.4823   H         1 1      0.0000
     8 H8       0.8246  -1.4360   2.1126   H         1 1      0.0000
     9 H9       0.4221   1.1909  -1.2339   H         1 1      0.0000
    10 H10      2.7588   0.7432  -1.8721   H         1 1      0.0000
    11 N11      4.4693  -0.8629  -0.6037   N.pl3     1 1      0.0000
    12 O12      4.9167  -0.3076  -1.5950   O.2       1 1      0.0000
    13 O13      5.1190  -1.6298   0.0898   O.2       1 1      0.0000
    14 CL3     -0.9950   0.2077   0.8867   C.3       1 1      0.0000
    15 CL1     -1.9736  -0.2289  -0.2402   C.3       1 1      0.0000
    16 H16     -2.9911   0.0636   0.0458   H         1 1      0.0000
    17 H17     -1.7253   0.3327  -1.1492   H         1 1      0.0000
    18 CL      -1.9787  -1.7274  -0.5905   C.3       1 1      0.0000
    19 CL2     -2.3367  -2.5234   0.6512   C.3       1 1      0.0000
    20 H20     -2.7997  -3.4704   0.3821   H         1 1      0.0000
    21 H21     -1.4484  -2.7362   1.2423   H         1 1      0.0000
    22 H22     -3.0349  -1.9702   1.2759   H         1 1      0.0000
    23 OL2     -1.2647  -0.4930   2.0945   O.3       1 1      0.0000
    24 H24     -2.1851  -0.2896   2.3939   H         1 1      0.0000
    25 N25     -2.9585  -2.0016  -1.6087   N.3       1 1      0.0000
    26 H26     -3.6407  -2.6420  -1.2026   H         1 1      0.0000
    27 C27     -3.7046  -0.8594  -2.1394   C.3       1 1      0.0000
    28 H28     -3.0280  -0.1181  -2.5593   H         1 1      0.0000
    29 H29     -4.3889  -1.1765  -2.9236   H         1 1      0.0000
    30 H30     -4.2869  -0.3809  -1.3547   H         1 1      0.0000
    31 OL1     -0.6710  -2.1250  -0.9849   O.3       1 1      0.0000
    32 H32     -0.6684  -3.0934  -1.1855   H         1 1      0.0000
    33 CL4     -1.0475   1.7283   1.1361   C.2       1 1      0.0000
    34 C34     -1.1947   3.8621   0.1105   C.3       1 1      0.0000
    35 H35     -0.5504   4.2060   0.9291   H         1 1      0.0000
    36 H36     -0.8350   4.3274  -0.8155   H         1 1      0.0000
    37 OL3     -1.0102   2.2229   2.2290   O.2       1 1      0.0000
    38 OL4     -1.1379   2.4092   0.0002   O.3       1 1      0.0000
    39 C39     -2.5995   4.2512   0.3667   C.3       1 1      0.0000
    40 H40     -2.9618   3.8027   1.2894   H         1 1      0.0000
    41 H41     -2.6902   5.3317   0.4567   H         1 1      0.0000
    42 H42     -3.2448   3.9234  -0.4456   H         1 1      0.0000
@<TRIPOS>BOND
     1     1     2   ar
     2     1     6   ar
     3     1    11    1
     4     2     3   ar
     5     2     7    1
     6     3     4   ar
     7     3     8    1
     8     4     5   ar
     9     4    14    1
    10     5     6   ar
    11     5     9    1
    12     6    10    1
    13    11    12    2
    14    11    13    2
    15    14    15    1
    16    14    23    1
    17    14    33    1
    18    15    16    1
    19    15    17    1
    20    15    18    1
    21    18    19    1
    22    18    25    1
    23    18    31    1
    24    19    20    1
    25    19    21    1
    26    19    22    1
    27    23    24    1
    28    25    26    1
    29    25    27    1
    30    27    28    1
    31    27    29    1
    32    27    30    1
    33    31    32    1
    34    33    37    2
    35    33    38    1
    36    34    35    1
    37    34    36    1
    38    34    38    1
    39    34    39    1
    40    39    40    1
    41    39    41    1
    42    39    42    1
@<TRIPOS>SUBSTRUCTURE
     1 1           1 GROUP             0 ****  ****    0  
@<TRIPOS>MOLECULE
Molecule Name_00131
    42    42     1     0     0
SMALL
NO_CHARGES
****
Generated from the CSD

@<TRIPOS>ATOM
     1 C1       2.9941  -0.6435  -0.2177   C.ar      1 1      0.0000
     2 C2       2.4623  -1.2141   0.9173   C.ar      1 1      0.0000
     3 C3       1.1663  -0.8900   1.2754   C.ar      1 1      0.0000
     4 C4       0.4040  -0.0071   0.5187   C.ar      1 1      0.0000
     5 C5       0.9793   0.5429  -0.6214   C.ar      1 1      0.0000
     6 C6       2.2733   0.2328  -0.9983   C.ar      1 1      0.0000
     7 H7       3.0473  -1.9032   1.5174   H         1 1      0.0000
     8 H8       0.7400  -1.3377   2.1665   H         1 1      0.0000
     9 H9       0.4041   1.2306  -1.2324   H         1 1      0.0000
    10 H10      2.7111   0.6702  -1.8894   H         1 1      0.0000
    11 N11      4.3690  -0.9793  -0.6070   N.pl3     1 1      0.0000
    12 O12      4.8262  -0.4652  -1.6159   O.2       1 1      0.0000
    13 O13      4.9950  -1.7579   0.0953   O.2       1 1      0.0000
    14 CL3     -1.0247   0.3550   0.9271   C.3       1 1      0.0000
    15 CL1     -2.0359  -0.0641  -0.1775   C.3       1 1      0.0000
    16 H16     -3.0367   0.2751   0.1159   H         1 1      0.0000
    17 H17     -1.7781   0.4689  -1.1011   H         1 1      0.0000
    18 CL      -2.1061  -1.5678  -0.4970   C.3       1 1      0.0000
    19 CL2     -2.4534  -2.3261   0.7710   C.3       1 1      0.0000
    20 H20     -2.9606  -3.2594   0.5356   H         1 1      0.0000
    21 H21     -1.5550  -2.5621   1.3375   H         1 1      0.0000
    22 H22     -3.1093  -1.7349   1.4066   H         1 1      0.0000
    23 OL2     -1.3076  -0.3072   2.1534   O.3       1 1      0.0000
    24 H24     -2.2145  -0.0583   2.4597   H         1 1      0.0000
    25 N25     -3.1267  -1.8252  -1.4788   N.3       1 1      0.0000
    26 H26     -3.5349  -0.9246  -1.7292   H         1 1      0.0000
    27 C27     -2.7047  -2.4666  -2.7253   C.3       1 1      0.0000
    28 H28     -2.2582  -3.4387  -2.5269   H         1 1      0.0000
    29 H29     -3.5533  -2.6128  -3.3903   H         1 1      0.0000
    30 H30     -1.9692  -1.8552  -3.2438   H         1 1      0.0000
    31 OL1     -0.8267  -2.0206  -0.9234   O.3       1 1      0.0000
    32 H32     -0.8358  -3.0066  -0.9999   H         1 1      0.0000
    33 CL4     -1.0096   1.8815   1.1432   C.2       1 1      0.0000
    34 C34     -1.0802   3.9968   0.0722   C.3       1 1      0.0000
    35 H35     -0.4110   4.3307   0.8748   H         1 1      0.0000
    36 H36     -0.7135   4.4261  -0.8684   H         1 1      0.0000
    37 OL3     -0.9367   2.3977   2.2242   O.2       1 1      0.0000
    38 OL4     -1.0863   2.5407  -0.0065   O.3       1 1      0.0000
    39 C39     -2.4637   4.4508   0.3371   C.3       1 1      0.0000
    40 H40     -2.8323   4.0383   1.2740   H         1 1      0.0000
    41 H41     -2.5074   5.5358   0.4041   H         1 1      0.0000
    42 H42     -3.1331   4.1331  -0.4596   H         1 1      0.0000
@<TRIPOS>BOND
     1     1     2   ar
     2     1     6   ar
     3     1    11    1
     4     2     3   ar
     5     2     7    1
     6     3     4   ar
     7     3     8    1
     8     4     5   ar
     9     4    14    1
    10     5     6   ar
    11     5     9    1
    12     6    10    1
    13    11    12    2
    14    11    13    2
    15    14    15    1
    16    14    23    1
    17    14    33    1
    18    15    16    1
    19    15    17    1
    20    15    18    1
    21    18    19    1
    22    18    25    1
    23    18    31    1
    24    19    20    1
    25    19    21    1
    26    19    22    1
    27    23    24    1
    28    25    26    1
    29    25    27    1
    30    27    28    1
    31    27    29    1
    32    27    30    1
    33    31    32    1
    34    33    37    2
    35    33    38    1
    36    34    35    1
    37    34    36    1
    38    34    38    1
    39    34    39    1
    40    39    40    1
    41    39    41    1
    42    39    42    1
@<TRIPOS>SUBSTRUCTURE
     1 1           1 GROUP             0 ****  ****    0  
@<TRIPOS>MOLECULE
Molecule Name_00132
    42    42     1     0     0
SMALL
NO_CHARGES
****
Generated from the CSD

@<TRIPOS>ATOM
     1 C1       2.9762  -0.4310  -0.2583   C.ar      1 1      0.0000
     2 C2       2.5066  -1.0837   0.8598   C.ar      1 1      0.0000
     3 C3       1.1852  -0.9016   1.2257   C.ar      1 1      0.0000
     4 C4       0.3365  -0.0791   0.4932   C.ar      1 1      0.0000
     5 C5       0.8515   0.5576  -0.6305   C.ar      1 1      0.0000
     6 C6       2.1695   0.3898  -1.0147   C.ar      1 1      0.0000
     7 H7       3.1590  -1.7268   1.4411   H         1 1      0.0000
     8 H8       0.8078  -1.4146   2.1035   H         1 1      0.0000
     9 H9       0.2090   1.2007  -1.2226   H         1 1      0.0000
    10 H10      2.5594   0.8938  -1.8928   H         1 1      0.0000
    11 N11      4.3772  -0.6157  -0.6554   N.pl3     1 1      0.0000
    12 O12      4.7785  -0.0303  -1.6491   O.2       1 1      0.0000
    13 O13      5.0796  -1.3467   0.0254   O.2       1 1      0.0000
    14 CL3     -1.1205   0.1258   0.9101   C.3       1 1      0.0000
    15 CL1     -2.0865  -0.3619  -0.2067   C.3       1 1      0.0000
    16 H16     -3.1156  -0.1308   0.0938   H         1 1      0.0000
    17 H17     -1.8833   0.2178  -1.1156   H         1 1      0.0000
    18 CL      -2.0085  -1.8563  -0.5654   C.3       1 1      0.0000
    19 CL2     -2.3032  -2.6780   0.6761   C.3       1 1      0.0000
    20 H20     -2.7134  -3.6492   0.4075   H         1 1      0.0000
    21 H21     -1.3964  -2.8414   1.2547   H         1 1      0.0000
    22 H22     -3.0244  -2.1697   1.3127   H         1 1      0.0000
    23 OL2     -1.3331  -0.5955   2.1172   O.3       1 1      0.0000
    24 H24     -2.2599  -0.4478   2.4295   H         1 1      0.0000
    25 N25     -2.9837  -2.1824  -1.5727   N.3       1 1      0.0000
    26 H26     -3.6220  -2.8636  -1.1617   H         1 1      0.0000
    27 C27     -3.8022  -1.0832  -2.0874   C.3       1 1      0.0000
    28 H28     -3.1755  -0.3015  -2.5116   H         1 1      0.0000
    29 H29     -4.4769  -1.4359  -2.8647   H         1 1      0.0000
    30 H30     -4.4012  -0.6434  -1.2927   H         1 1      0.0000
    31 OL1     -0.6850  -2.1747  -0.9787   O.3       1 1      0.0000
    32 H32     -0.6284  -3.1403  -1.1848   H         1 1      0.0000
    33 CL4     -1.2586   1.6395   1.1689   C.2       1 1      0.0000
    34 C34     -1.5437   3.7660   0.1574   C.3       1 1      0.0000
    35 H35     -2.0746   4.1689  -0.7139   H         1 1      0.0000
    36 H36     -2.1285   4.0182   1.0506   H         1 1      0.0000
    37 OL3     -1.2361   2.1300   2.2640   O.2       1 1      0.0000
    38 OL4     -1.4034   2.3194   0.0381   O.3       1 1      0.0000
    39 C39     -0.1891   4.3553   0.2491   C.3       1 1      0.0000
    40 H40      0.3950   4.1192  -0.6379   H         1 1      0.0000
    41 H41     -0.2450   5.4380   0.3399   H         1 1      0.0000
    42 H42      0.3414   3.9693   1.1170   H         1 1      0.0000
@<TRIPOS>BOND
     1     1     2   ar
     2     1     6   ar
     3     1    11    1
     4     2     3   ar
     5     2     7    1
     6     3     4   ar
     7     3     8    1
     8     4     5   ar
     9     4    14    1
    10     5     6   ar
    11     5     9    1
    12     6    10    1
    13    11    12    2
    14    11    13    2
    15    14    15    1
    16    14    23    1
    17    14    33    1
    18    15    16    1
    19    15    17    1
    20    15    18    1
    21    18    19    1
    22    18    25    1
    23    18    31    1
    24    19    20    1
    25    19    21    1
    26    19    22    1
    27    23    24    1
    28    25    26    1
    29    25    27    1
    30    27    28    1
    31    27    29    1
    32    27    30    1
    33    31    32    1
    34    33    37    2
    35    33    38    1
    36    34    35    1
    37    34    36    1
    38    34    38    1
    39    34    39    1
    40    39    40    1
    41    39    41    1
    42    39    42    1
@<TRIPOS>SUBSTRUCTURE
     1 1           1 GROUP             0 ****  ****    0  
@<TRIPOS>MOLECULE
Molecule Name_00133
    42    42     1     0     0
SMALL
NO_CHARGES
****
Generated from the CSD

@<TRIPOS>ATOM
     1 C1       2.8958  -0.4814  -0.2513   C.ar      1 1      0.0000
     2 C2       2.4134  -1.0902   0.8859   C.ar      1 1      0.0000
     3 C3       1.1060  -0.8440   1.2640   C.ar      1 1      0.0000
     4 C4       0.2838  -0.0008   0.5249   C.ar      1 1      0.0000
     5 C5       0.8107   0.5900  -0.6182   C.ar      1 1      0.0000
     6 C6       2.1152   0.3577  -1.0149   C.ar      1 1      0.0000
     7 H7       3.0453  -1.7489   1.4725   H         1 1      0.0000
     8 H8       0.7185  -1.3222   2.1570   H         1 1      0.0000
     9 H9       0.1886   1.2479  -1.2158   H         1 1      0.0000
    10 H10      2.5147   0.8263  -1.9082   H         1 1      0.0000
    11 N11      4.2823  -0.7345  -0.6616   N.pl3     1 1      0.0000
    12 O12      4.6952  -0.1873  -1.6723   O.2       1 1      0.0000
    13 O13      4.9616  -1.4810   0.0257   O.2       1 1      0.0000
    14 CL3     -1.1576   0.2752   0.9552   C.3       1 1      0.0000
    15 CL1     -2.1582  -0.1931  -0.1392   C.3       1 1      0.0000
    16 H16     -3.1727   0.0856   0.1704   H         1 1      0.0000
    17 H17     -1.9442   0.3607  -1.0617   H         1 1      0.0000
    18 CL      -2.1461  -1.6960  -0.4702   C.3       1 1      0.0000
    19 CL2     -2.4317  -2.4825   0.7960   C.3       1 1      0.0000
    20 H20     -2.8876  -3.4417   0.5596   H         1 1      0.0000
    21 H21     -1.5135  -2.6706   1.3485   H         1 1      0.0000
    22 H22     -3.1117  -1.9348   1.4451   H         1 1      0.0000
    23 OL2     -1.3850  -0.4113   2.1797   O.3       1 1      0.0000
    24 H24     -2.3004  -0.2175   2.5001   H         1 1      0.0000
    25 N25     -3.1637  -2.0044  -1.4404   N.3       1 1      0.0000
    26 H26     -3.6264  -1.1270  -1.6778   H         1 1      0.0000
    27 C27     -2.7227  -2.6110  -2.6977   C.3       1 1      0.0000
    28 H28     -2.2183  -3.5572  -2.5133   H         1 1      0.0000
    29 H29     -3.5706  -2.8009  -3.3525   H         1 1      0.0000
    30 H30     -2.0308  -1.9544  -3.2209   H         1 1      0.0000
    31 OL1     -0.8488  -2.0711  -0.9173   O.3       1 1      0.0000
    32 H32     -0.8022  -3.0554  -1.0019   H         1 1      0.0000
    33 CL4     -1.2273   1.7984   1.1838   C.2       1 1      0.0000
    34 C34     -1.4342   3.9140   0.1314   C.3       1 1      0.0000
    35 H35     -1.9588   4.3216  -0.7417   H         1 1      0.0000
    36 H36     -1.9959   4.2095   1.0262   H         1 1      0.0000
    37 OL3     -1.1694   2.3098   2.2680   O.2       1 1      0.0000
    38 OL4     -1.3577   2.4607   0.0407   O.3       1 1      0.0000
    39 C39     -0.0546   4.4462   0.1941   C.3       1 1      0.0000
    40 H40      0.5072   4.1671  -0.6949   H         1 1      0.0000
    41 H41     -0.0628   5.5320   0.2628   H         1 1      0.0000
    42 H42      0.4703   4.0555   1.0633   H         1 1      0.0000
@<TRIPOS>BOND
     1     1     2   ar
     2     1     6   ar
     3     1    11    1
     4     2     3   ar
     5     2     7    1
     6     3     4   ar
     7     3     8    1
     8     4     5   ar
     9     4    14    1
    10     5     6   ar
    11     5     9    1
    12     6    10    1
    13    11    12    2
    14    11    13    2
    15    14    15    1
    16    14    23    1
    17    14    33    1
    18    15    16    1
    19    15    17    1
    20    15    18    1
    21    18    19    1
    22    18    25    1
    23    18    31    1
    24    19    20    1
    25    19    21    1
    26    19    22    1
    27    23    24    1
    28    25    26    1
    29    25    27    1
    30    27    28    1
    31    27    29    1
    32    27    30    1
    33    31    32    1
    34    33    37    2
    35    33    38    1
    36    34    35    1
    37    34    36    1
    38    34    38    1
    39    34    39    1
    40    39    40    1
    41    39    41    1
    42    39    42    1
@<TRIPOS>SUBSTRUCTURE
     1 1           1 GROUP             0 ****  ****    0  
@<TRIPOS>MOLECULE
Molecule Name_00134
    42    42     1     0     0
SMALL
NO_CHARGES
****
Generated from the CSD

@<TRIPOS>ATOM
     1 C1       3.0542  -0.5711  -0.2539   C.ar      1 1      0.0000
     2 C2       2.5100  -1.2235   0.8300   C.ar      1 1      0.0000
     3 C3       1.2025  -0.9426   1.1828   C.ar      1 1      0.0000
     4 C4       0.4409  -0.0225   0.4711   C.ar      1 1      0.0000
     5 C5       1.0290   0.6102  -0.6185   C.ar      1 1      0.0000
     6 C6       2.3347   0.3445  -0.9890   C.ar      1 1      0.0000
     7 H7       3.0943  -1.9423   1.3949   H         1 1      0.0000
     8 H8       0.7665  -1.4546   2.0337   H         1 1      0.0000
     9 H9       0.4548   1.3285  -1.1940   H         1 1      0.0000
    10 H10      2.7824   0.8465  -1.8404   H         1 1      0.0000
    11 N11      4.4415  -0.8604  -0.6369   N.pl3     1 1      0.0000
    12 O12      4.9096  -0.2738  -1.6003   O.2       1 1      0.0000
    13 O13      5.0661  -1.6748   0.0247   O.2       1 1      0.0000
    14 CL3     -1.0008   0.2909   0.8738   C.3       1 1      0.0000
    15 CL1     -1.9843  -0.0697  -0.2756   C.3       1 1      0.0000
    16 H16     -3.0063   0.1525   0.0544   H         1 1      0.0000
    17 H17     -1.7753   0.5892  -1.1274   H         1 1      0.0000
    18 CL      -1.9396  -1.5248  -0.7744   C.3       1 1      0.0000
    19 CL2     -2.1955  -2.4560   0.3963   C.3       1 1      0.0000
    20 H20     -2.3067  -3.4831   0.0550   H         1 1      0.0000
    21 H21     -1.3700  -2.4216   1.1042   H         1 1      0.0000
    22 H22     -3.1050  -2.1733   0.9223   H         1 1      0.0000
    23 OL2     -1.2961  -0.4544   2.0485   O.3       1 1      0.0000
    24 H24     -2.2124  -0.2396   2.3523   H         1 1      0.0000
    25 N25     -2.9579  -1.7465  -1.7673   N.3       1 1      0.0000
    26 H26     -2.4900  -2.1006  -2.6017   H         1 1      0.0000
    27 C27     -4.0178  -2.6991  -1.4326   C.3       1 1      0.0000
    28 H28     -4.4918  -2.4333  -0.4901   H         1 1      0.0000
    29 H29     -4.7835  -2.7114  -2.2055   H         1 1      0.0000
    30 H30     -3.6159  -3.7057  -1.3378   H         1 1      0.0000
    31 OL1     -0.6376  -1.8151  -1.2688   O.3       1 1      0.0000
    32 H32     -0.6015  -2.7578  -1.5658   H         1 1      0.0000
    33 CL4     -1.0141   1.8000   1.1895   C.2       1 1      0.0000
    34 C34     -1.0963   3.9797   0.2576   C.3       1 1      0.0000
    35 H35     -0.4490   4.2699   1.0944   H         1 1      0.0000
    36 H36     -0.7174   4.4751  -0.6449   H         1 1      0.0000
    37 OL3     -0.9715   2.2451   2.3032   O.2       1 1      0.0000
    38 OL4     -1.0779   2.5320   0.0840   O.3       1 1      0.0000
    39 C39     -2.4920   4.3954   0.5221   C.3       1 1      0.0000
    40 H40     -2.8729   3.9170   1.4220   H         1 1      0.0000
    41 H41     -2.5541   5.4729   0.6588   H         1 1      0.0000
    42 H42     -3.1399   4.1211  -0.3078   H         1 1      0.0000
@<TRIPOS>BOND
     1     1     2   ar
     2     1     6   ar
     3     1    11    1
     4     2     3   ar
     5     2     7    1
     6     3     4   ar
     7     3     8    1
     8     4     5   ar
     9     4    14    1
    10     5     6   ar
    11     5     9    1
    12     6    10    1
    13    11    12    2
    14    11    13    2
    15    14    15    1
    16    14    23    1
    17    14    33    1
    18    15    16    1
    19    15    17    1
    20    15    18    1
    21    18    19    1
    22    18    25    1
    23    18    31    1
    24    19    20    1
    25    19    21    1
    26    19    22    1
    27    23    24    1
    28    25    26    1
    29    25    27    1
    30    27    28    1
    31    27    29    1
    32    27    30    1
    33    31    32    1
    34    33    37    2
    35    33    38    1
    36    34    35    1
    37    34    36    1
    38    34    38    1
    39    34    39    1
    40    39    40    1
    41    39    41    1
    42    39    42    1
@<TRIPOS>SUBSTRUCTURE
     1 1           1 GROUP             0 ****  ****    0  
@<TRIPOS>MOLECULE
Molecule Name_00135
    42    42     1     0     0
SMALL
NO_CHARGES
****
Generated from the CSD

@<TRIPOS>ATOM
     1 C1       2.9512  -0.4110  -0.2863   C.ar      1 1      0.0000
     2 C2       2.4589  -1.0975   0.8013   C.ar      1 1      0.0000
     3 C3       1.1422  -0.8928   1.1719   C.ar      1 1      0.0000
     4 C4       0.3204  -0.0147   0.4741   C.ar      1 1      0.0000
     5 C5       0.8576   0.6548  -0.6198   C.ar      1 1      0.0000
     6 C6       2.1714   0.4652  -1.0080   C.ar      1 1      0.0000
     7 H7       3.0903  -1.7841   1.3555   H         1 1      0.0000
     8 H8       0.7470  -1.4321   2.0258   H         1 1      0.0000
     9 H9       0.2361   1.3415  -1.1847   H         1 1      0.0000
    10 H10      2.5789   0.9951  -1.8626   H         1 1      0.0000
    11 N11      4.3476  -0.6193  -0.6881   N.pl3     1 1      0.0000
    12 O12      4.7692  -0.0033  -1.6546   O.2       1 1      0.0000
    13 O13      5.0259  -1.3995  -0.0382   O.2       1 1      0.0000
    14 CL3     -1.1315   0.2146   0.8964   C.3       1 1      0.0000
    15 CL1     -2.1075  -0.1967  -0.2422   C.3       1 1      0.0000
    16 H16     -3.1362  -0.0344   0.1017   H         1 1      0.0000
    17 H17     -1.9473   0.4763  -1.0935   H         1 1      0.0000
    18 CL      -1.9867  -1.6449  -0.7483   C.3       1 1      0.0000
    19 CL2     -2.1742  -2.5939   0.4212   C.3       1 1      0.0000
    20 H20     -2.2313  -3.6243   0.0766   H         1 1      0.0000
    21 H21     -1.3430  -2.5153   1.1188   H         1 1      0.0000
    22 H22     -3.0915  -2.3654   0.9600   H         1 1      0.0000
    23 OL2     -1.3689  -0.5509   2.0712   O.3       1 1      0.0000
    24 H24     -2.2919  -0.3897   2.3876   H         1 1      0.0000
    25 N25     -3.0034  -1.9203  -1.7293   N.3       1 1      0.0000
    26 H26     -2.5269  -2.2439  -2.5711   H         1 1      0.0000
    27 C27     -4.0031  -2.9330  -1.3857   C.3       1 1      0.0000
    28 H28     -4.4793  -2.6982  -0.4361   H         1 1      0.0000
    29 H29     -4.7768  -2.9857  -2.1489   H         1 1      0.0000
    30 H30     -3.5435  -3.9155  -1.3007   H         1 1      0.0000
    31 OL1     -0.6768  -1.8589  -1.2604   O.3       1 1      0.0000
    32 H32     -0.5910  -2.7968  -1.5623   H         1 1      0.0000
    33 CL4     -1.2265   1.7192   1.2193   C.2       1 1      0.0000
    34 C34     -1.4443   3.8944   0.2987   C.3       1 1      0.0000
    35 H35     -1.9590   4.3497  -0.5564   H         1 1      0.0000
    36 H36     -2.0258   4.1254   1.1998   H         1 1      0.0000
    37 OL3     -1.1949   2.1617   2.3344   O.2       1 1      0.0000
    38 OL4     -1.3459   2.4508   0.1181   O.3       1 1      0.0000
    39 C39     -0.0736   4.4392   0.4204   C.3       1 1      0.0000
    40 H40      0.5077   4.2241  -0.4739   H         1 1      0.0000
    41 H41     -0.0981   5.5183   0.5572   H         1 1      0.0000
    42 H42      0.4413   4.0010   1.2728   H         1 1      0.0000
@<TRIPOS>BOND
     1     1     2   ar
     2     1     6   ar
     3     1    11    1
     4     2     3   ar
     5     2     7    1
     6     3     4   ar
     7     3     8    1
     8     4     5   ar
     9     4    14    1
    10     5     6   ar
    11     5     9    1
    12     6    10    1
    13    11    12    2
    14    11    13    2
    15    14    15    1
    16    14    23    1
    17    14    33    1
    18    15    16    1
    19    15    17    1
    20    15    18    1
    21    18    19    1
    22    18    25    1
    23    18    31    1
    24    19    20    1
    25    19    21    1
    26    19    22    1
    27    23    24    1
    28    25    26    1
    29    25    27    1
    30    27    28    1
    31    27    29    1
    32    27    30    1
    33    31    32    1
    34    33    37    2
    35    33    38    1
    36    34    35    1
    37    34    36    1
    38    34    38    1
    39    34    39    1
    40    39    40    1
    41    39    41    1
    42    39    42    1
@<TRIPOS>SUBSTRUCTURE
     1 1           1 GROUP             0 ****  ****    0  
@<TRIPOS>MOLECULE
Molecule Name_00136
    42    42     1     0     0
SMALL
NO_CHARGES
****
Generated from the CSD

@<TRIPOS>ATOM
     1 C1       3.5795  -0.3706  -0.1496   C.ar      1 1      0.0000
     2 C2       2.7735   0.1644  -1.1298   C.ar      1 1      0.0000
     3 C3       1.4032   0.1428  -0.9440   C.ar      1 1      0.0000
     4 C4       0.8349  -0.4056   0.2004   C.ar      1 1      0.0000
     5 C5       1.6861  -0.9315   1.1659   C.ar      1 1      0.0000
     6 C6       3.0592  -0.9203   1.0009   C.ar      1 1      0.0000
     7 H7       3.2043   0.5937  -2.0284   H         1 1      0.0000
     8 H8       0.7624   0.5649  -1.7106   H         1 1      0.0000
     9 H9       1.2686  -1.3606   2.0707   H         1 1      0.0000
    10 H10      3.7123  -1.3355   1.7614   H         1 1      0.0000
    11 N11      5.0353  -0.3542  -0.3365   N.pl3     1 1      0.0000
    12 O12      5.7364  -0.8324   0.5417   O.2       1 1      0.0000
    13 O13      5.4812   0.1368  -1.3618   O.2       1 1      0.0000
    14 CL3     -0.6819  -0.4357   0.3938   C.3       1 1      0.0000
    15 CL1     -1.4072  -0.6167  -0.9698   C.3       1 1      0.0000
    16 H16     -1.1899   0.2533  -1.6011   H         1 1      0.0000
    17 H17     -0.9783  -1.4909  -1.4751   H         1 1      0.0000
    18 CL      -2.9336  -0.8025  -0.9061   C.3       1 1      0.0000
    19 CL2     -3.4802  -0.8840  -2.3196   C.3       1 1      0.0000
    20 H20     -4.5615  -1.0045  -2.3086   H         1 1      0.0000
    21 H21     -3.2456   0.0206  -2.8767   H         1 1      0.0000
    22 H22     -3.0503  -1.7304  -2.8512   H         1 1      0.0000
    23 OL2     -0.9864  -1.5070   1.2782   O.3       1 1      0.0000
    24 H24     -1.7479  -1.2508   1.8548   H         1 1      0.0000
    25 N25     -3.2624  -2.0225  -0.2167   N.3       1 1      0.0000
    26 H26     -2.3823  -2.4478   0.0749   H         1 1      0.0000
    27 C27     -4.1000  -1.9069   0.9784   C.3       1 1      0.0000
    28 H28     -5.1223  -1.6492   0.7094   H         1 1      0.0000
    29 H29     -4.1205  -2.8460   1.5274   H         1 1      0.0000
    30 H30     -3.7193  -1.1340   1.6428   H         1 1      0.0000
    31 OL1     -3.5230   0.3362  -0.2900   O.3       1 1      0.0000
    32 H32     -4.5011   0.3190  -0.4352   H         1 1      0.0000
    33 CL4     -1.0323   0.9114   1.0569   C.2       1 1      0.0000
    34 C34     -1.6359   3.1716   0.6650   C.3       1 1      0.0000
    35 H35     -2.5301   3.1124   1.2977   H         1 1      0.0000
    36 H36     -0.8176   3.5666   1.2796   H         1 1      0.0000
    37 OL3     -1.0638   1.0776   2.2450   O.2       1 1      0.0000
    38 OL4     -1.2908   1.8500   0.1545   O.3       1 1      0.0000
    39 C39     -1.8845   4.0625  -0.4904   C.3       1 1      0.0000
    40 H40     -2.7022   3.6842  -1.1003   H         1 1      0.0000
    41 H41     -2.1466   5.0641  -0.1558   H         1 1      0.0000
    42 H42     -0.9990   4.1359  -1.1184   H         1 1      0.0000
@<TRIPOS>BOND
     1     1     2   ar
     2     1     6   ar
     3     1    11    1
     4     2     3   ar
     5     2     7    1
     6     3     4   ar
     7     3     8    1
     8     4     5   ar
     9     4    14    1
    10     5     6   ar
    11     5     9    1
    12     6    10    1
    13    11    12    2
    14    11    13    2
    15    14    15    1
    16    14    23    1
    17    14    33    1
    18    15    16    1
    19    15    17    1
    20    15    18    1
    21    18    19    1
    22    18    25    1
    23    18    31    1
    24    19    20    1
    25    19    21    1
    26    19    22    1
    27    23    24    1
    28    25    26    1
    29    25    27    1
    30    27    28    1
    31    27    29    1
    32    27    30    1
    33    31    32    1
    34    33    37    2
    35    33    38    1
    36    34    35    1
    37    34    36    1
    38    34    38    1
    39    34    39    1
    40    39    40    1
    41    39    41    1
    42    39    42    1
@<TRIPOS>SUBSTRUCTURE
     1 1           1 GROUP             0 ****  ****    0  
@<TRIPOS>MOLECULE
Molecule Name_00137
    42    42     1     0     0
SMALL
NO_CHARGES
****
Generated from the CSD

@<TRIPOS>ATOM
     1 C1       3.5658  -0.3832  -0.1308   C.ar      1 1      0.0000
     2 C2       2.7401   0.0871  -1.1276   C.ar      1 1      0.0000
     3 C3       1.3755   0.1031  -0.9033   C.ar      1 1      0.0000
     4 C4       0.8322  -0.3447   0.2957   C.ar      1 1      0.0000
     5 C5       1.7028  -0.8078   1.2760   C.ar      1 1      0.0000
     6 C6       3.0706  -0.8326   1.0732   C.ar      1 1      0.0000
     7 H7       3.1513   0.4376  -2.0685   H         1 1      0.0000
     8 H8       0.7194   0.4747  -1.6829   H         1 1      0.0000
     9 H9       1.3050  -1.1579   2.2227   H         1 1      0.0000
    10 H10      3.7390  -1.1981   1.8458   H         1 1      0.0000
    11 N11      5.0158  -0.4060  -0.3580   N.pl3     1 1      0.0000
    12 O12      5.7346  -0.8259   0.5355   O.2       1 1      0.0000
    13 O13      5.4394  -0.0041  -1.4305   O.2       1 1      0.0000
    14 CL3     -0.6787  -0.3341   0.5323   C.3       1 1      0.0000
    15 CL1     -1.4453  -0.6088  -0.7925   C.3       1 1      0.0000
    16 H16     -1.2335   0.2055  -1.4959   H         1 1      0.0000
    17 H17     -1.0438  -1.5268  -1.2392   H         1 1      0.0000
    18 CL      -2.9718  -0.7633  -0.6728   C.3       1 1      0.0000
    19 CL2     -3.5597  -0.9457  -2.0601   C.3       1 1      0.0000
    20 H20     -4.6404  -1.0604  -2.0089   H         1 1      0.0000
    21 H21     -3.3395  -0.0853  -2.6885   H         1 1      0.0000
    22 H22     -3.1474  -1.8306  -2.5404   H         1 1      0.0000
    23 OL2     -0.9735  -1.3278   1.5060   O.3       1 1      0.0000
    24 H24     -1.9421  -1.3151   1.7057   H         1 1      0.0000
    25 N25     -3.2986  -1.9201   0.1190   N.3       1 1      0.0000
    26 H26     -3.8538  -1.5939   0.9100   H         1 1      0.0000
    27 C27     -4.0665  -2.9802  -0.5364   C.3       1 1      0.0000
    28 H28     -3.5290  -3.3689  -1.3989   H         1 1      0.0000
    29 H29     -4.2485  -3.8050   0.1494   H         1 1      0.0000
    30 H30     -5.0288  -2.6046  -0.8778   H         1 1      0.0000
    31 OL1     -3.5267   0.4297  -0.1321   O.3       1 1      0.0000
    32 H32     -4.5102   0.3401  -0.0789   H         1 1      0.0000
    33 CL4     -0.9904   1.0664   1.0969   C.2       1 1      0.0000
    34 C34     -1.5718   3.2989   0.5453   C.3       1 1      0.0000
    35 H35     -2.4483   3.3044   1.2050   H         1 1      0.0000
    36 H36     -0.7306   3.7269   1.1044   H         1 1      0.0000
    37 OL3     -0.9855   1.3254   2.2687   O.2       1 1      0.0000
    38 OL4     -1.2608   1.9359   0.1309   O.3       1 1      0.0000
    39 C39     -1.8402   4.1010  -0.6692   C.3       1 1      0.0000
    40 H40     -2.6804   3.6900  -1.2250   H         1 1      0.0000
    41 H41     -2.0780   5.1299  -0.4072   H         1 1      0.0000
    42 H42     -0.9721   4.1102  -1.3250   H         1 1      0.0000
@<TRIPOS>BOND
     1     1     2   ar
     2     1     6   ar
     3     1    11    1
     4     2     3   ar
     5     2     7    1
     6     3     4   ar
     7     3     8    1
     8     4     5   ar
     9     4    14    1
    10     5     6   ar
    11     5     9    1
    12     6    10    1
    13    11    12    2
    14    11    13    2
    15    14    15    1
    16    14    23    1
    17    14    33    1
    18    15    16    1
    19    15    17    1
    20    15    18    1
    21    18    19    1
    22    18    25    1
    23    18    31    1
    24    19    20    1
    25    19    21    1
    26    19    22    1
    27    23    24    1
    28    25    26    1
    29    25    27    1
    30    27    28    1
    31    27    29    1
    32    27    30    1
    33    31    32    1
    34    33    37    2
    35    33    38    1
    36    34    35    1
    37    34    36    1
    38    34    38    1
    39    34    39    1
    40    39    40    1
    41    39    41    1
    42    39    42    1
@<TRIPOS>SUBSTRUCTURE
     1 1           1 GROUP             0 ****  ****    0  
@<TRIPOS>MOLECULE
Molecule Name_00138
    42    42     1     0     0
SMALL
NO_CHARGES
****
Generated from the CSD

@<TRIPOS>ATOM
     1 C1       3.5229  -0.2972  -0.1614   C.ar      1 1      0.0000
     2 C2       2.9865   0.6517   0.6804   C.ar      1 1      0.0000
     3 C3       1.6146   0.6827   0.8531   C.ar      1 1      0.0000
     4 C4       0.7804  -0.2156   0.1968   C.ar      1 1      0.0000
     5 C5       1.3648  -1.1590  -0.6409   C.ar      1 1      0.0000
     6 C6       2.7342  -1.2082  -0.8281   C.ar      1 1      0.0000
     7 H7       3.6262   1.3595   1.1970   H         1 1      0.0000
     8 H8       1.1853   1.4255   1.5166   H         1 1      0.0000
     9 H9       0.7369  -1.8749  -1.1607   H         1 1      0.0000
    10 H10      3.1775  -1.9485  -1.4860   H         1 1      0.0000
    11 N11      4.9776  -0.3388  -0.3533   N.pl3     1 1      0.0000
    12 O12      5.4379  -1.1859  -1.1028   O.2       1 1      0.0000
    13 O13      5.6633   0.4755   0.2450   O.2       1 1      0.0000
    14 CL3     -0.7367  -0.1681   0.3843   C.3       1 1      0.0000
    15 CL1     -1.4455  -1.1205  -0.6201   C.3       1 1      0.0000
    16 H16     -1.3507  -0.7004  -1.6287   H         1 1      0.0000
    17 H17     -0.9106  -2.0782  -0.6233   H         1 1      0.0000
    18 CL      -2.9335  -1.4050  -0.3495   C.3       1 1      0.0000
    19 CL2     -3.6870  -0.0884  -0.3015   C.3       1 1      0.0000
    20 H20     -4.7607  -0.2563  -0.3543   H         1 1      0.0000
    21 H21     -3.4725   0.4452   0.6221   H         1 1      0.0000
    22 H22     -3.4023   0.5496  -1.1355   H         1 1      0.0000
    23 OL2     -1.0209  -0.5417   1.7268   O.3       1 1      0.0000
    24 H24     -1.9934  -0.4661   1.8901   H         1 1      0.0000
    25 N25     -3.4897  -2.2130  -1.4030   N.3       1 1      0.0000
    26 H26     -2.9411  -3.0720  -1.4425   H         1 1      0.0000
    27 C27     -4.8936  -2.6060  -1.2700   C.3       1 1      0.0000
    28 H28     -5.5483  -1.7459  -1.3941   H         1 1      0.0000
    29 H29     -5.1599  -3.3459  -2.0219   H         1 1      0.0000
    30 H30     -5.0822  -3.0368  -0.2889   H         1 1      0.0000
    31 OL1     -3.0730  -2.0187   0.9263   O.3       1 1      0.0000
    32 H32     -4.0334  -2.1386   1.1301   H         1 1      0.0000
    33 CL4     -1.1274   1.3052   0.1529   C.2       1 1      0.0000
    34 C34     -1.5291   3.3965   1.1978   C.3       1 1      0.0000
    35 H35     -2.2884   3.5435   0.4198   H         1 1      0.0000
    36 H36     -1.9531   3.7439   2.1480   H         1 1      0.0000
    37 OL3     -1.3628   1.7669  -0.9296   O.2       1 1      0.0000
    38 OL4     -1.1691   1.9865   1.2914   O.3       1 1      0.0000
    39 C39     -0.3067   4.1645   0.8716   C.3       1 1      0.0000
    40 H40      0.1153   3.8340  -0.0752   H         1 1      0.0000
    41 H41     -0.5284   5.2267   0.7914   H         1 1      0.0000
    42 H42      0.4487   4.0333   1.6435   H         1 1      0.0000
@<TRIPOS>BOND
     1     1     2   ar
     2     1     6   ar
     3     1    11    1
     4     2     3   ar
     5     2     7    1
     6     3     4   ar
     7     3     8    1
     8     4     5   ar
     9     4    14    1
    10     5     6   ar
    11     5     9    1
    12     6    10    1
    13    11    12    2
    14    11    13    2
    15    14    15    1
    16    14    23    1
    17    14    33    1
    18    15    16    1
    19    15    17    1
    20    15    18    1
    21    18    19    1
    22    18    25    1
    23    18    31    1
    24    19    20    1
    25    19    21    1
    26    19    22    1
    27    23    24    1
    28    25    26    1
    29    25    27    1
    30    27    28    1
    31    27    29    1
    32    27    30    1
    33    31    32    1
    34    33    37    2
    35    33    38    1
    36    34    35    1
    37    34    36    1
    38    34    38    1
    39    34    39    1
    40    39    40    1
    41    39    41    1
    42    39    42    1
@<TRIPOS>SUBSTRUCTURE
     1 1           1 GROUP             0 ****  ****    0  
@<TRIPOS>MOLECULE
Molecule Name_00139
    42    42     1     0     0
SMALL
NO_CHARGES
****
Generated from the CSD

@<TRIPOS>ATOM
     1 C1       3.4529  -0.3743  -0.1380   C.ar      1 1      0.0000
     2 C2       2.9409   0.6504   0.6266   C.ar      1 1      0.0000
     3 C3       1.5735   0.7069   0.8263   C.ar      1 1      0.0000
     4 C4       0.7198  -0.2406   0.2724   C.ar      1 1      0.0000
     5 C5       1.2799  -1.2599  -0.4896   C.ar      1 1      0.0000
     6 C6       2.6444  -1.3358  -0.7021   C.ar      1 1      0.0000
     7 H7       3.5961   1.3971   1.0629   H         1 1      0.0000
     8 H8       1.1635   1.5095   1.4295   H         1 1      0.0000
     9 H9       0.6364  -2.0150  -0.9287   H         1 1      0.0000
    10 H10      3.0686  -2.1355  -1.3003   H         1 1      0.0000
    11 N11      4.9026  -0.4438  -0.3577   N.pl3     1 1      0.0000
    12 O12      5.3412  -1.3583  -1.0378   O.2       1 1      0.0000
    13 O13      5.6061   0.4160   0.1494   O.2       1 1      0.0000
    14 CL3     -0.7923  -0.1653   0.4886   C.3       1 1      0.0000
    15 CL1     -1.5290  -1.1987  -0.4101   C.3       1 1      0.0000
    16 H16     -1.4539  -0.8723  -1.4543   H         1 1      0.0000
    17 H17     -1.0002  -2.1571  -0.3381   H         1 1      0.0000
    18 CL      -3.0124  -1.4455  -0.0831   C.3       1 1      0.0000
    19 CL2     -3.7581  -0.1252  -0.1466   C.3       1 1      0.0000
    20 H20     -4.8331  -0.2905  -0.1771   H         1 1      0.0000
    21 H21     -3.5339   0.4867   0.7246   H         1 1      0.0000
    22 H22     -3.4760   0.4348  -1.0357   H         1 1      0.0000
    23 OL2     -1.0478  -0.4148   1.8652   O.3       1 1      0.0000
    24 H24     -2.0161  -0.3191   2.0423   H         1 1      0.0000
    25 N25     -3.5946  -2.3471  -1.0424   N.3       1 1      0.0000
    26 H26     -4.5677  -2.4859  -0.7701   H         1 1      0.0000
    27 C27     -3.5973  -1.9188  -2.4422   C.3       1 1      0.0000
    28 H28     -2.5811  -1.7769  -2.8041   H         1 1      0.0000
    29 H29     -4.0806  -2.6627  -3.0722   H         1 1      0.0000
    30 H30     -4.1323  -0.9784  -2.5568   H         1 1      0.0000
    31 OL1     -3.1282  -1.9328   1.2484   O.3       1 1      0.0000
    32 H32     -4.0832  -2.0672   1.4673   H         1 1      0.0000
    33 CL4     -1.1804   1.2842   0.1344   C.2       1 1      0.0000
    34 C34     -1.5513   3.4627   0.9964   C.3       1 1      0.0000
    35 H35     -2.3250   3.5449   0.2231   H         1 1      0.0000
    36 H36     -1.9550   3.8959   1.9199   H         1 1      0.0000
    37 OL3     -1.4346   1.6494  -0.9802   O.2       1 1      0.0000
    38 OL4     -1.1965   2.0643   1.2084   O.3       1 1      0.0000
    39 C39     -0.3318   4.1906   0.5799   C.3       1 1      0.0000
    40 H40      0.0700   3.7744  -0.3416   H         1 1      0.0000
    41 H41     -0.5499   5.2428   0.4098   H         1 1      0.0000
    42 H42      0.4379   4.1235   1.3459   H         1 1      0.0000
@<TRIPOS>BOND
     1     1     2   ar
     2     1     6   ar
     3     1    11    1
     4     2     3   ar
     5     2     7    1
     6     3     4   ar
     7     3     8    1
     8     4     5   ar
     9     4    14    1
    10     5     6   ar
    11     5     9    1
    12     6    10    1
    13    11    12    2
    14    11    13    2
    15    14    15    1
    16    14    23    1
    17    14    33    1
    18    15    16    1
    19    15    17    1
    20    15    18    1
    21    18    19    1
    22    18    25    1
    23    18    31    1
    24    19    20    1
    25    19    21    1
    26    19    22    1
    27    23    24    1
    28    25    26    1
    29    25    27    1
    30    27    28    1
    31    27    29    1
    32    27    30    1
    33    31    32    1
    34    33    37    2
    35    33    38    1
    36    34    35    1
    37    34    36    1
    38    34    38    1
    39    34    39    1
    40    39    40    1
    41    39    41    1
    42    39    42    1
@<TRIPOS>SUBSTRUCTURE
     1 1           1 GROUP             0 ****  ****    0  
@<TRIPOS>MOLECULE
Molecule Name_00140
    42    42     1     0     0
SMALL
NO_CHARGES
****
Generated from the CSD

@<TRIPOS>ATOM
     1 C1       3.4182  -0.3890  -0.1583   C.ar      1 1      0.0000
     2 C2       2.9242   0.5916   0.6729   C.ar      1 1      0.0000
     3 C3       1.5555   0.6791   0.8520   C.ar      1 1      0.0000
     4 C4       0.6830  -0.1943   0.2122   C.ar      1 1      0.0000
     5 C5       1.2252  -1.1714  -0.6153   C.ar      1 1      0.0000
     6 C6       2.5906  -1.2771  -0.8086   C.ar      1 1      0.0000
     7 H7       3.5942   1.2806   1.1766   H         1 1      0.0000
     8 H8       1.1596   1.4472   1.5073   H         1 1      0.0000
     9 H9       0.5667  -1.8689  -1.1221   H         1 1      0.0000
    10 H10      3.0007  -2.0431  -1.4584   H         1 1      0.0000
    11 N11      4.8690  -0.4906  -0.3569   N.pl3     1 1      0.0000
    12 O12      5.2915  -1.3653  -1.0969   O.2       1 1      0.0000
    13 O13      5.5895   0.3040   0.2268   O.2       1 1      0.0000
    14 CL3     -0.8299  -0.0845   0.4066   C.3       1 1      0.0000
    15 CL1     -1.5813  -1.0215  -0.5813   C.3       1 1      0.0000
    16 H16     -1.4749  -0.6194  -1.5960   H         1 1      0.0000
    17 H17     -1.0850  -1.9997  -0.5735   H         1 1      0.0000
    18 CL      -3.0781  -1.2425  -0.3001   C.3       1 1      0.0000
    19 CL2     -3.7790   0.1034  -0.2720   C.3       1 1      0.0000
    20 H20     -4.8580  -0.0224  -0.3326   H         1 1      0.0000
    21 H21     -3.5513   0.6377   0.6480   H         1 1      0.0000
    22 H22     -3.4622   0.7208  -1.1099   H         1 1      0.0000
    23 OL2     -1.1213  -0.4286   1.7554   O.3       1 1      0.0000
    24 H24     -2.0893  -0.3134   1.9222   H         1 1      0.0000
    25 N25     -3.6703  -2.0459  -1.3373   N.3       1 1      0.0000
    26 H26     -3.5592  -1.5339  -2.2124   H         1 1      0.0000
    27 C27     -3.1090  -3.3815  -1.5471   C.3       1 1      0.0000
    28 H28     -3.1972  -3.9831  -0.6449   H         1 1      0.0000
    29 H29     -3.6307  -3.8973  -2.3507   H         1 1      0.0000
    30 H30     -2.0554  -3.3199  -1.8118   H         1 1      0.0000
    31 OL1     -3.2358  -1.8283   0.9867   O.3       1 1      0.0000
    32 H32     -4.1989  -1.9469   1.1780   H         1 1      0.0000
    33 CL4     -1.1636   1.4000   0.1571   C.2       1 1      0.0000
    34 C34     -1.4812   3.5183   1.1760   C.3       1 1      0.0000
    35 H35     -2.2360   3.6849   0.3975   H         1 1      0.0000
    36 H36     -1.8894   3.8939   2.1224   H         1 1      0.0000
    37 OL3     -1.3831   1.8568  -0.9308   O.2       1 1      0.0000
    38 OL4     -1.1763   2.0967   1.2870   O.3       1 1      0.0000
    39 C39     -0.2306   4.2339   0.8380   C.3       1 1      0.0000
    40 H40      0.1761   3.8753  -0.1052   H         1 1      0.0000
    41 H41     -0.4110   5.3028   0.7447   H         1 1      0.0000
    42 H42      0.5208   4.0832   1.6103   H         1 1      0.0000
@<TRIPOS>BOND
     1     1     2   ar
     2     1     6   ar
     3     1    11    1
     4     2     3   ar
     5     2     7    1
     6     3     4   ar
     7     3     8    1
     8     4     5   ar
     9     4    14    1
    10     5     6   ar
    11     5     9    1
    12     6    10    1
    13    11    12    2
    14    11    13    2
    15    14    15    1
    16    14    23    1
    17    14    33    1
    18    15    16    1
    19    15    17    1
    20    15    18    1
    21    18    19    1
    22    18    25    1
    23    18    31    1
    24    19    20    1
    25    19    21    1
    26    19    22    1
    27    23    24    1
    28    25    26    1
    29    25    27    1
    30    27    28    1
    31    27    29    1
    32    27    30    1
    33    31    32    1
    34    33    37    2
    35    33    38    1
    36    34    35    1
    37    34    36    1
    38    34    38    1
    39    34    39    1
    40    39    40    1
    41    39    41    1
    42    39    42    1
@<TRIPOS>SUBSTRUCTURE
     1 1           1 GROUP             0 ****  ****    0  
@<TRIPOS>MOLECULE
Molecule Name_00141
    42    42     1     0     0
SMALL
NO_CHARGES
****
Generated from the CSD

@<TRIPOS>ATOM
     1 C1       3.6295  -0.4520  -0.1257   C.ar      1 1      0.0000
     2 C2       3.1329   0.5374   0.6934   C.ar      1 1      0.0000
     3 C3       1.7624   0.6419   0.8482   C.ar      1 1      0.0000
     4 C4       0.8909  -0.2233   0.1961   C.ar      1 1      0.0000
     5 C5       1.4356  -1.2097  -0.6185   C.ar      1 1      0.0000
     6 C6       2.8028  -1.3325  -0.7875   C.ar      1 1      0.0000
     7 H7       3.8022   1.2201   1.2065   H         1 1      0.0000
     8 H8       1.3643   1.4170   1.4939   H         1 1      0.0000
     9 H9       0.7777  -1.9011  -1.1345   H         1 1      0.0000
    10 H10      3.2150  -2.1056  -1.4274   H         1 1      0.0000
    11 N11      5.0823  -0.5717  -0.2984   N.pl3     1 1      0.0000
    12 O12      5.5071  -1.4540  -1.0280   O.2       1 1      0.0000
    13 O13      5.8020   0.2163   0.2951   O.2       1 1      0.0000
    14 CL3     -0.6239  -0.0947   0.3636   C.3       1 1      0.0000
    15 CL1     -1.3690  -1.0263  -0.6340   C.3       1 1      0.0000
    16 H16     -1.2407  -0.6289  -1.6481   H         1 1      0.0000
    17 H17     -0.8843  -2.0102  -0.6147   H         1 1      0.0000
    18 CL      -2.8728  -1.2292  -0.3778   C.3       1 1      0.0000
    19 CL2     -3.5578   0.1251  -0.3609   C.3       1 1      0.0000
    20 H20     -4.6380   0.0117  -0.4246   H         1 1      0.0000
    21 H21     -3.3269   0.6626   0.5564   H         1 1      0.0000
    22 H22     -3.2306   0.7332  -1.2017   H         1 1      0.0000
    23 OL2     -0.9429  -0.4302   1.7082   O.3       1 1      0.0000
    24 H24     -1.9120  -0.3018   1.8579   H         1 1      0.0000
    25 N25     -3.4575  -2.0253  -1.4249   N.3       1 1      0.0000
    26 H26     -2.9535  -2.9119  -1.4433   H         1 1      0.0000
    27 C27     -4.8813  -2.3432  -1.3033   C.3       1 1      0.0000
    28 H28     -5.4891  -1.4528  -1.4498   H         1 1      0.0000
    29 H29     -5.1765  -3.0812  -2.0463   H         1 1      0.0000
    30 H30     -5.1035  -2.7469  -0.3177   H         1 1      0.0000
    31 OL1     -3.0590  -1.8131   0.9060   O.3       1 1      0.0000
    32 H32     -4.0266  -1.8798   1.0996   H         1 1      0.0000
    33 CL4     -0.9352   1.3927   0.1031   C.2       1 1      0.0000
    34 C34     -1.2406   3.5193   1.1083   C.3       1 1      0.0000
    35 H35     -0.8198   4.0648   1.9620   H         1 1      0.0000
    36 H36     -0.7825   3.9219   0.1964   H         1 1      0.0000
    37 OL3     -1.1336   1.8474  -0.9898   O.2       1 1      0.0000
    38 OL4     -0.9552   2.0945   1.2296   O.3       1 1      0.0000
    39 C39     -2.7097   3.6938   1.0632   C.3       1 1      0.0000
    40 H40     -3.1720   3.3069   1.9688   H         1 1      0.0000
    41 H41     -2.9705   4.7462   0.9725   H         1 1      0.0000
    42 H42     -3.1349   3.1648   0.2129   H         1 1      0.0000
@<TRIPOS>BOND
     1     1     2   ar
     2     1     6   ar
     3     1    11    1
     4     2     3   ar
     5     2     7    1
     6     3     4   ar
     7     3     8    1
     8     4     5   ar
     9     4    14    1
    10     5     6   ar
    11     5     9    1
    12     6    10    1
    13    11    12    2
    14    11    13    2
    15    14    15    1
    16    14    23    1
    17    14    33    1
    18    15    16    1
    19    15    17    1
    20    15    18    1
    21    18    19    1
    22    18    25    1
    23    18    31    1
    24    19    20    1
    25    19    21    1
    26    19    22    1
    27    23    24    1
    28    25    26    1
    29    25    27    1
    30    27    28    1
    31    27    29    1
    32    27    30    1
    33    31    32    1
    34    33    37    2
    35    33    38    1
    36    34    35    1
    37    34    36    1
    38    34    38    1
    39    34    39    1
    40    39    40    1
    41    39    41    1
    42    39    42    1
@<TRIPOS>SUBSTRUCTURE
     1 1           1 GROUP             0 ****  ****    0  
@<TRIPOS>MOLECULE
Molecule Name_00142
    42    42     1     0     0
SMALL
NO_CHARGES
****
Generated from the CSD

@<TRIPOS>ATOM
     1 C1       3.5547  -0.5322  -0.1007   C.ar      1 1      0.0000
     2 C2       3.0881   0.5374   0.6307   C.ar      1 1      0.0000
     3 C3       1.7232   0.6707   0.8102   C.ar      1 1      0.0000
     4 C4       0.8276  -0.2448   0.2688   C.ar      1 1      0.0000
     5 C5       1.3424  -1.3115  -0.4595   C.ar      1 1      0.0000
     6 C6       2.7035  -1.4643  -0.6514   C.ar      1 1      0.0000
     7 H7       3.7763   1.2598   1.0569   H         1 1      0.0000
     8 H8       1.3488   1.5091   1.3874   H         1 1      0.0000
     9 H9       0.6654  -2.0429  -0.8881   H         1 1      0.0000
    10 H10      3.0922  -2.3004  -1.2233   H         1 1      0.0000
    11 N11      5.0013  -0.6832  -0.2988   N.pl3     1 1      0.0000
    12 O12      5.3993  -1.6368  -0.9496   O.2       1 1      0.0000
    13 O13      5.7429   0.1513   0.1959   O.2       1 1      0.0000
    14 CL3     -0.6810  -0.0847   0.4625   C.3       1 1      0.0000
    15 CL1     -1.4601  -1.1010  -0.4198   C.3       1 1      0.0000
    16 H16     -1.3551  -0.8061  -1.4709   H         1 1      0.0000
    17 H17     -0.9835  -2.0836  -0.3165   H         1 1      0.0000
    18 CL      -2.9584  -1.2611  -0.1070   C.3       1 1      0.0000
    19 CL2     -3.6326   0.0944  -0.2139   C.3       1 1      0.0000
    20 H20     -4.7143  -0.0150  -0.2549   H         1 1      0.0000
    21 H21     -3.3870   0.7161   0.6446   H         1 1      0.0000
    22 H22     -3.3103   0.6156  -1.1129   H         1 1      0.0000
    23 OL2     -0.9662  -0.2847   1.8413   O.3       1 1      0.0000
    24 H24     -1.9302  -0.1338   2.0028   H         1 1      0.0000
    25 N25     -3.5755  -2.1555  -1.0510   N.3       1 1      0.0000
    26 H26     -4.5579  -2.2359  -0.7887   H         1 1      0.0000
    27 C27     -3.5384  -1.7641  -2.4611   C.3       1 1      0.0000
    28 H28     -2.5118  -1.6850  -2.8126   H         1 1      0.0000
    29 H29     -4.0525  -2.4976  -3.0787   H         1 1      0.0000
    30 H30     -4.0216  -0.8002  -2.6067   H         1 1      0.0000
    31 OL1     -3.1160  -1.7070   1.2347   O.3       1 1      0.0000
    32 H32     -4.0794  -1.7854   1.4439   H         1 1      0.0000
    33 CL4     -0.9877   1.3735   0.0666   C.2       1 1      0.0000
    34 C34     -1.2537   3.5900   0.8683   C.3       1 1      0.0000
    35 H35     -0.8088   4.2112   1.6554   H         1 1      0.0000
    36 H36     -0.8144   3.8983  -0.0885   H         1 1      0.0000
    37 OL3     -1.2085   1.7225  -1.0602   O.2       1 1      0.0000
    38 OL4     -0.9757   2.1809   1.1202   O.3       1 1      0.0000
    39 C39     -2.7220   3.7733   0.8401   C.3       1 1      0.0000
    40 H40     -3.1656   3.4800   1.7893   H         1 1      0.0000
    41 H41     -2.9772   4.8145   0.6541   H         1 1      0.0000
    42 H42     -3.1712   3.1688   0.0549   H         1 1      0.0000
@<TRIPOS>BOND
     1     1     2   ar
     2     1     6   ar
     3     1    11    1
     4     2     3   ar
     5     2     7    1
     6     3     4   ar
     7     3     8    1
     8     4     5   ar
     9     4    14    1
    10     5     6   ar
    11     5     9    1
    12     6    10    1
    13    11    12    2
    14    11    13    2
    15    14    15    1
    16    14    23    1
    17    14    33    1
    18    15    16    1
    19    15    17    1
    20    15    18    1
    21    18    19    1
    22    18    25    1
    23    18    31    1
    24    19    20    1
    25    19    21    1
    26    19    22    1
    27    23    24    1
    28    25    26    1
    29    25    27    1
    30    27    28    1
    31    27    29    1
    32    27    30    1
    33    31    32    1
    34    33    37    2
    35    33    38    1
    36    34    35    1
    37    34    36    1
    38    34    38    1
    39    34    39    1
    40    39    40    1
    41    39    41    1
    42    39    42    1
@<TRIPOS>SUBSTRUCTURE
     1 1           1 GROUP             0 ****  ****    0  
@<TRIPOS>MOLECULE
Molecule Name_00143
    42    42     1     0     0
SMALL
NO_CHARGES
****
Generated from the CSD

@<TRIPOS>ATOM
     1 C1       3.5207  -0.5452  -0.1221   C.ar      1 1      0.0000
     2 C2       3.0686   0.4737   0.6865   C.ar      1 1      0.0000
     3 C3       1.7043   0.6354   0.8463   C.ar      1 1      0.0000
     4 C4       0.7952  -0.2022   0.2097   C.ar      1 1      0.0000
     5 C5       1.2955  -1.2201  -0.5946   C.ar      1 1      0.0000
     6 C6       2.6557  -1.4001  -0.7685   C.ar      1 1      0.0000
     7 H7       3.7675   1.1354   1.1874   H         1 1      0.0000
     8 H8       1.3411   1.4341   1.4838   H         1 1      0.0000
     9 H9       0.6077  -1.8909  -1.0985   H         1 1      0.0000
    10 H10      3.0332  -2.1973  -1.4002   H         1 1      0.0000
    11 N11      4.9666  -0.7256  -0.3001   N.pl3     1 1      0.0000
    12 O12      5.3517  -1.6336  -1.0202   O.2       1 1      0.0000
    13 O13      5.7205   0.0403   0.2798   O.2       1 1      0.0000
    14 CL3     -0.7122  -0.0105   0.3826   C.3       1 1      0.0000
    15 CL1     -1.4995  -0.9238  -0.5995   C.3       1 1      0.0000
    16 H16     -1.3599  -0.5452  -1.6192   H         1 1      0.0000
    17 H17     -1.0551  -1.9263  -0.5693   H         1 1      0.0000
    18 CL      -3.0091  -1.0619  -0.3342   C.3       1 1      0.0000
    19 CL2     -3.6391   0.3189  -0.3372   C.3       1 1      0.0000
    20 H20     -4.7223   0.2484  -0.4098   H         1 1      0.0000
    21 H21     -3.3948   0.8563   0.5768   H         1 1      0.0000
    22 H22     -3.2803   0.9047  -1.1809   H         1 1      0.0000
    23 OL2     -1.0375  -0.3160   1.7329   O.3       1 1      0.0000
    24 H24     -2.0001  -0.1478   1.8852   H         1 1      0.0000
    25 N25     -3.6299  -1.8509  -1.3657   N.3       1 1      0.0000
    26 H26     -3.4816  -1.3603  -2.2476   H         1 1      0.0000
    27 C27     -3.1366  -3.2173  -1.5464   C.3       1 1      0.0000
    28 H28     -3.2670  -3.7980  -0.6356   H         1 1      0.0000
    29 H29     -3.6747  -3.7188  -2.3480   H         1 1      0.0000
    30 H30     -2.0781  -3.2151  -1.7983   H         1 1      0.0000
    31 OL1     -3.2128  -1.6166   0.9598   O.3       1 1      0.0000
    32 H32     -4.1829  -1.6817   1.1405   H         1 1      0.0000
    33 CL4     -0.9648   1.4848   0.1045   C.2       1 1      0.0000
    34 C34     -1.1837   3.6339   1.0844   C.3       1 1      0.0000
    35 H35     -0.7399   4.1724   1.9308   H         1 1      0.0000
    36 H36     -0.7117   4.0069   0.1670   H         1 1      0.0000
    37 OL3     -1.1470   1.9338  -0.9935   O.2       1 1      0.0000
    38 OL4     -0.9548   2.2004   1.2225   O.3       1 1      0.0000
    39 C39     -2.6447   3.8660   1.0392   C.3       1 1      0.0000
    40 H40     -3.1203   3.5086   1.9501   H         1 1      0.0000
    41 H41     -2.8637   4.9267   0.9361   H         1 1      0.0000
    42 H42     -3.0922   3.3440   0.1959   H         1 1      0.0000
@<TRIPOS>BOND
     1     1     2   ar
     2     1     6   ar
     3     1    11    1
     4     2     3   ar
     5     2     7    1
     6     3     4   ar
     7     3     8    1
     8     4     5   ar
     9     4    14    1
    10     5     6   ar
    11     5     9    1
    12     6    10    1
    13    11    12    2
    14    11    13    2
    15    14    15    1
    16    14    23    1
    17    14    33    1
    18    15    16    1
    19    15    17    1
    20    15    18    1
    21    18    19    1
    22    18    25    1
    23    18    31    1
    24    19    20    1
    25    19    21    1
    26    19    22    1
    27    23    24    1
    28    25    26    1
    29    25    27    1
    30    27    28    1
    31    27    29    1
    32    27    30    1
    33    31    32    1
    34    33    37    2
    35    33    38    1
    36    34    35    1
    37    34    36    1
    38    34    38    1
    39    34    39    1
    40    39    40    1
    41    39    41    1
    42    39    42    1
@<TRIPOS>SUBSTRUCTURE
     1 1           1 GROUP             0 ****  ****    0  
@<TRIPOS>MOLECULE
Molecule Name_00144
    42    42     1     0     0
SMALL
NO_CHARGES
****
Generated from the CSD

@<TRIPOS>ATOM
     1 C1       3.5526  -0.3161  -0.0945   C.ar      1 1      0.0000
     2 C2       2.8056   0.4157  -0.9906   C.ar      1 1      0.0000
     3 C3       1.4353   0.4778  -0.8139   C.ar      1 1      0.0000
     4 C4       0.8091  -0.1804   0.2388   C.ar      1 1      0.0000
     5 C5       1.6022  -0.9047   1.1218   C.ar      1 1      0.0000
     6 C6       2.9742  -0.9803   0.9641   C.ar      1 1      0.0000
     7 H7       3.2817   0.9324  -1.8174   H         1 1      0.0000
     8 H8       0.8409   1.0545  -1.5142   H         1 1      0.0000
     9 H9       1.1392  -1.4232   1.9548   H         1 1      0.0000
    10 H10      3.5815  -1.5504   1.6594   H         1 1      0.0000
    11 N11      5.0078  -0.3901  -0.2728   N.pl3     1 1      0.0000
    12 O12      5.6562  -1.0429   0.5300   O.2       1 1      0.0000
    13 O13      5.5057   0.2044  -1.2162   O.2       1 1      0.0000
    14 CL3     -0.7079  -0.1160   0.4215   C.3       1 1      0.0000
    15 CL1     -1.4065  -1.2585  -0.3691   C.3       1 1      0.0000
    16 H16     -1.2480  -1.0913  -1.4412   H         1 1      0.0000
    17 H17     -0.9107  -2.2044  -0.1184   H         1 1      0.0000
    18 CL      -2.9157  -1.4296  -0.1213   C.3       1 1      0.0000
    19 CL2     -3.6224  -0.1307  -0.4631   C.3       1 1      0.0000
    20 H20     -4.6870  -0.2984  -0.6119   H         1 1      0.0000
    21 H21     -3.5025   0.5959   0.3378   H         1 1      0.0000
    22 H22     -3.2164   0.3007  -1.3757   H         1 1      0.0000
    23 OL2     -0.9832  -0.2182   1.8130   O.3       1 1      0.0000
    24 H24     -1.9578  -0.1404   1.9618   H         1 1      0.0000
    25 N25     -3.4465  -2.4738  -0.9579   N.3       1 1      0.0000
    26 H26     -2.9243  -3.3234  -0.7435   H         1 1      0.0000
    27 C27     -4.8670  -2.7926  -0.8042   C.3       1 1      0.0000
    28 H28     -5.4871  -2.0032  -1.2236   H         1 1      0.0000
    29 H29     -5.1110  -3.7223  -1.3141   H         1 1      0.0000
    30 H30     -5.1256  -2.9045   0.2467   H         1 1      0.0000
    31 OL1     -3.1422  -1.6833   1.2600   O.3       1 1      0.0000
    32 H32     -4.1150  -1.6881   1.4381   H         1 1      0.0000
    33 CL4     -1.1195   1.2765  -0.0968   C.2       1 1      0.0000
    34 C34     -1.7453   3.4768   0.5306   C.3       1 1      0.0000
    35 H35     -2.3929   3.4539  -0.3545   H         1 1      0.0000
    36 H36     -2.3119   3.9417   1.3468   H         1 1      0.0000
    37 OL3     -1.2181   1.5483  -1.2616   O.2       1 1      0.0000
    38 OL4     -1.3473   2.1234   0.8998   O.3       1 1      0.0000
    39 C39     -0.5201   4.2576   0.2485   C.3       1 1      0.0000
    40 H40      0.0434   3.8097  -0.5674   H         1 1      0.0000
    41 H41     -0.7696   5.2787  -0.0324   H         1 1      0.0000
    42 H42      0.1239   4.2949   1.1247   H         1 1      0.0000
@<TRIPOS>BOND
     1     1     2   ar
     2     1     6   ar
     3     1    11    1
     4     2     3   ar
     5     2     7    1
     6     3     4   ar
     7     3     8    1
     8     4     5   ar
     9     4    14    1
    10     5     6   ar
    11     5     9    1
    12     6    10    1
    13    11    12    2
    14    11    13    2
    15    14    15    1
    16    14    23    1
    17    14    33    1
    18    15    16    1
    19    15    17    1
    20    15    18    1
    21    18    19    1
    22    18    25    1
    23    18    31    1
    24    19    20    1
    25    19    21    1
    26    19    22    1
    27    23    24    1
    28    25    26    1
    29    25    27    1
    30    27    28    1
    31    27    29    1
    32    27    30    1
    33    31    32    1
    34    33    37    2
    35    33    38    1
    36    34    35    1
    37    34    36    1
    38    34    38    1
    39    34    39    1
    40    39    40    1
    41    39    41    1
    42    39    42    1
@<TRIPOS>SUBSTRUCTURE
     1 1           1 GROUP             0 ****  ****    0  
@<TRIPOS>MOLECULE
Molecule Name_00145
    42    42     1     0     0
SMALL
NO_CHARGES
****
Generated from the CSD

@<TRIPOS>ATOM
     1 C1       3.4762  -0.3927  -0.0775   C.ar      1 1      0.0000
     2 C2       2.7156   0.2725  -1.0132   C.ar      1 1      0.0000
     3 C3       1.3513   0.3699  -0.8083   C.ar      1 1      0.0000
     4 C4       0.7443  -0.1882   0.3112   C.ar      1 1      0.0000
     5 C5       1.5506  -0.8478   1.2321   C.ar      1 1      0.0000
     6 C6       2.9169  -0.9571   1.0473   C.ar      1 1      0.0000
     7 H7       3.1767   0.7109  -1.8921   H         1 1      0.0000
     8 H8       0.7464   0.8948  -1.5397   H         1 1      0.0000
     9 H9       1.1028  -1.2877   2.1170   H         1 1      0.0000
    10 H10      3.5347  -1.4760   1.7728   H         1 1      0.0000
    11 N11      4.9251  -0.5034  -0.2851   N.pl3     1 1      0.0000
    12 O12      5.5857  -1.0963   0.5535   O.2       1 1      0.0000
    13 O13      5.4059   0.0023  -1.2873   O.2       1 1      0.0000
    14 CL3     -0.7665  -0.0858   0.5255   C.3       1 1      0.0000
    15 CL1     -1.5003  -1.2795  -0.1491   C.3       1 1      0.0000
    16 H16     -1.3665  -1.2052  -1.2350   H         1 1      0.0000
    17 H17     -1.0112  -2.2087   0.1683   H         1 1      0.0000
    18 CL      -3.0049  -1.4055   0.1482   C.3       1 1      0.0000
    19 CL2     -3.7030  -0.1309  -0.2896   C.3       1 1      0.0000
    20 H20     -4.7710  -0.2987  -0.4120   H         1 1      0.0000
    21 H21     -3.5660   0.6568   0.4483   H         1 1      0.0000
    22 H22     -3.3042   0.2207  -1.2388   H         1 1      0.0000
    23 OL2     -1.0068  -0.0675   1.9271   O.3       1 1      0.0000
    24 H24     -1.9761   0.0372   2.0930   H         1 1      0.0000
    25 N25     -3.5698  -2.5108  -0.5807   N.3       1 1      0.0000
    26 H26     -4.5592  -2.5554  -0.3370   H         1 1      0.0000
    27 C27     -3.4896  -2.4554  -2.0414   C.3       1 1      0.0000
    28 H28     -2.4529  -2.4199  -2.3697   H         1 1      0.0000
    29 H29     -3.9563  -3.3315  -2.4868   H         1 1      0.0000
    30 H30     -3.9962  -1.5711  -2.4223   H         1 1      0.0000
    31 OL1     -3.2003  -1.5339   1.5514   O.3       1 1      0.0000
    32 H32     -4.1687  -1.5893   1.7447   H         1 1      0.0000
    33 CL4     -1.1732   1.2648  -0.0970   C.2       1 1      0.0000
    34 C34     -1.7573   3.5179   0.3597   C.3       1 1      0.0000
    35 H35     -2.4258   3.4311  -0.5057   H         1 1      0.0000
    36 H36     -2.2989   4.0566   1.1471   H         1 1      0.0000
    37 OL3     -1.2960   1.4408  -1.2778   O.2       1 1      0.0000
    38 OL4     -1.3673   2.1942   0.8308   O.3       1 1      0.0000
    39 C39     -0.5297   4.2555  -0.0136   C.3       1 1      0.0000
    40 H40      0.0089   3.7339  -0.8020   H         1 1      0.0000
    41 H41     -0.7734   5.2533  -0.3725   H         1 1      0.0000
    42 H42      0.1351   4.3560   0.8418   H         1 1      0.0000
@<TRIPOS>BOND
     1     1     2   ar
     2     1     6   ar
     3     1    11    1
     4     2     3   ar
     5     2     7    1
     6     3     4   ar
     7     3     8    1
     8     4     5   ar
     9     4    14    1
    10     5     6   ar
    11     5     9    1
    12     6    10    1
    13    11    12    2
    14    11    13    2
    15    14    15    1
    16    14    23    1
    17    14    33    1
    18    15    16    1
    19    15    17    1
    20    15    18    1
    21    18    19    1
    22    18    25    1
    23    18    31    1
    24    19    20    1
    25    19    21    1
    26    19    22    1
    27    23    24    1
    28    25    26    1
    29    25    27    1
    30    27    28    1
    31    27    29    1
    32    27    30    1
    33    31    32    1
    34    33    37    2
    35    33    38    1
    36    34    35    1
    37    34    36    1
    38    34    38    1
    39    34    39    1
    40    39    40    1
    41    39    41    1
    42    39    42    1
@<TRIPOS>SUBSTRUCTURE
     1 1           1 GROUP             0 ****  ****    0  
@<TRIPOS>MOLECULE
Molecule Name_00146
    42    42     1     0     0
SMALL
NO_CHARGES
****
Generated from the CSD

@<TRIPOS>ATOM
     1 C1       3.4488  -0.4023  -0.1043   C.ar      1 1      0.0000
     2 C2       2.7295   0.3635  -0.9946   C.ar      1 1      0.0000
     3 C3       1.3631   0.4789  -0.8143   C.ar      1 1      0.0000
     4 C4       0.7136  -0.1598   0.2362   C.ar      1 1      0.0000
     5 C5       1.4792  -0.9199   1.1134   C.ar      1 1      0.0000
     6 C6       2.8467  -1.0489   0.9521   C.ar      1 1      0.0000
     7 H7       3.2240   0.8655  -1.8196   H         1 1      0.0000
     8 H8       0.7906   1.0825  -1.5101   H         1 1      0.0000
     9 H9       0.9978  -1.4243   1.9446   H         1 1      0.0000
    10 H10      3.4324  -1.6465   1.6428   H         1 1      0.0000
    11 N11      4.8995  -0.5329  -0.2864   N.pl3     1 1      0.0000
    12 O12      5.5233  -1.2153   0.5114   O.2       1 1      0.0000
    13 O13      5.4186   0.0466  -1.2277   O.2       1 1      0.0000
    14 CL3     -0.7993  -0.0364   0.4228   C.3       1 1      0.0000
    15 CL1     -1.5444  -1.1454  -0.3730   C.3       1 1      0.0000
    16 H16     -1.3806  -0.9787  -1.4445   H         1 1      0.0000
    17 H17     -1.0868  -2.1119  -0.1283   H         1 1      0.0000
    18 CL      -3.0589  -1.2569  -0.1240   C.3       1 1      0.0000
    19 CL2     -3.7138   0.0697  -0.4626   C.3       1 1      0.0000
    20 H20     -4.7821  -0.0578  -0.6248   H         1 1      0.0000
    21 H21     -3.5767   0.7850   0.3457   H         1 1      0.0000
    22 H22     -3.2819   0.4933  -1.3669   H         1 1      0.0000
    23 OL2     -1.0755  -0.1360   1.8143   O.3       1 1      0.0000
    24 H24     -2.0460  -0.0205   1.9658   H         1 1      0.0000
    25 N25     -3.6316  -2.2776  -0.9619   N.3       1 1      0.0000
    26 H26     -3.4640  -1.9996  -1.9289   H         1 1      0.0000
    27 C27     -3.1076  -3.6360  -0.8089   C.3       1 1      0.0000
    28 H28     -3.2566  -3.9946   0.2074   H         1 1      0.0000
    29 H29     -3.6104  -4.3220  -1.4875   H         1 1      0.0000
    30 H30     -2.0419  -3.6650  -1.0258   H         1 1      0.0000
    31 OL1     -3.2939  -1.5040   1.2571   O.3       1 1      0.0000
    32 H32     -4.2681  -1.5503   1.4216   H         1 1      0.0000
    33 CL4     -1.1563   1.3745  -0.0861   C.2       1 1      0.0000
    34 C34     -1.6965   3.5931   0.5561   C.3       1 1      0.0000
    35 H35     -2.3442   3.6013  -0.3293   H         1 1      0.0000
    36 H36     -2.2451   4.0742   1.3753   H         1 1      0.0000
    37 OL3     -1.2439   1.6578  -1.2490   O.2       1 1      0.0000
    38 OL4     -1.3516   2.2228   0.9161   O.3       1 1      0.0000
    39 C39     -0.4418   4.3278   0.2794   C.3       1 1      0.0000
    40 H40      0.1041   3.8639  -0.5394   H         1 1      0.0000
    41 H41     -0.6515   5.3596   0.0054   H         1 1      0.0000
    42 H42      0.2027   4.3341   1.1559   H         1 1      0.0000
@<TRIPOS>BOND
     1     1     2   ar
     2     1     6   ar
     3     1    11    1
     4     2     3   ar
     5     2     7    1
     6     3     4   ar
     7     3     8    1
     8     4     5   ar
     9     4    14    1
    10     5     6   ar
    11     5     9    1
    12     6    10    1
    13    11    12    2
    14    11    13    2
    15    14    15    1
    16    14    23    1
    17    14    33    1
    18    15    16    1
    19    15    17    1
    20    15    18    1
    21    18    19    1
    22    18    25    1
    23    18    31    1
    24    19    20    1
    25    19    21    1
    26    19    22    1
    27    23    24    1
    28    25    26    1
    29    25    27    1
    30    27    28    1
    31    27    29    1
    32    27    30    1
    33    31    32    1
    34    33    37    2
    35    33    38    1
    36    34    35    1
    37    34    36    1
    38    34    38    1
    39    34    39    1
    40    39    40    1
    41    39    41    1
    42    39    42    1
@<TRIPOS>SUBSTRUCTURE
     1 1           1 GROUP             0 ****  ****    0  
@<TRIPOS>MOLECULE
Molecule Name_00147
    42    42     1     0     0
SMALL
NO_CHARGES
****
Generated from the CSD

@<TRIPOS>ATOM
     1 C1       3.6575  -0.4584  -0.0691   C.ar      1 1      0.0000
     2 C2       2.9553   0.3134  -0.9680   C.ar      1 1      0.0000
     3 C3       1.5884   0.4432  -0.8020   C.ar      1 1      0.0000
     4 C4       0.9215  -0.1870   0.2427   C.ar      1 1      0.0000
     5 C5       1.6701  -0.9536   1.1289   C.ar      1 1      0.0000
     6 C6       3.0378  -1.0970   0.9820   C.ar      1 1      0.0000
     7 H7       3.4635   0.8090  -1.7886   H         1 1      0.0000
     8 H8       1.0294   1.0516  -1.5045   H         1 1      0.0000
     9 H9       1.1749  -1.4516   1.9558   H         1 1      0.0000
    10 H10      3.6101  -1.6995   1.6796   H         1 1      0.0000
    11 N11      5.1085  -0.6043  -0.2360   N.pl3     1 1      0.0000
    12 O12      5.7169  -1.2919   0.5692   O.2       1 1      0.0000
    13 O13      5.6432  -0.0317  -1.1727   O.2       1 1      0.0000
    14 CL3     -0.5919  -0.0477   0.4135   C.3       1 1      0.0000
    15 CL1     -1.3402  -1.1506  -0.3877   C.3       1 1      0.0000
    16 H16     -1.1646  -0.9872  -1.4578   H         1 1      0.0000
    17 H17     -0.8943  -2.1211  -0.1372   H         1 1      0.0000
    18 CL      -2.8580  -1.2471  -0.1529   C.3       1 1      0.0000
    19 CL2     -3.4960   0.0870  -0.4946   C.3       1 1      0.0000
    20 H20     -4.5665  -0.0268  -0.6527   H         1 1      0.0000
    21 H21     -3.3466   0.8034   0.3104   H         1 1      0.0000
    22 H22     -3.0615   0.5011  -1.4020   H         1 1      0.0000
    23 OL2     -0.8834  -0.1414   1.8023   O.3       1 1      0.0000
    24 H24     -1.8541  -0.0156   1.9436   H         1 1      0.0000
    25 N25     -3.4333  -2.2601  -0.9983   N.3       1 1      0.0000
    26 H26     -2.9561  -3.1355  -0.7834   H         1 1      0.0000
    27 C27     -4.8692  -2.5081  -0.8573   C.3       1 1      0.0000
    28 H28     -5.4456  -1.6869  -1.2783   H         1 1      0.0000
    29 H29     -5.1551  -3.4223  -1.3733   H         1 1      0.0000
    30 H30     -5.1417  -2.6111   0.1909   H         1 1      0.0000
    31 OL1     -3.1082  -1.4946   1.2255   O.3       1 1      0.0000
    32 H32     -4.0815  -1.4514   1.3958   H         1 1      0.0000
    33 CL4     -0.9291   1.3658  -0.1019   C.2       1 1      0.0000
    34 C34     -1.4493   3.5921   0.5301   C.3       1 1      0.0000
    35 H35     -1.1646   4.2782   1.3372   H         1 1      0.0000
    36 H36     -0.8953   3.8869  -0.3697   H         1 1      0.0000
    37 OL3     -1.0044   1.6468  -1.2663   O.2       1 1      0.0000
    38 OL4     -1.1226   2.2190   0.8964   O.3       1 1      0.0000
    39 C39     -2.9064   3.6697   0.2823   C.3       1 1      0.0000
    40 H40     -3.4646   3.3891   1.1731   H         1 1      0.0000
    41 H41     -3.1971   4.6807   0.0047   H         1 1      0.0000
    42 H42     -3.1967   2.9999  -0.5244   H         1 1      0.0000
@<TRIPOS>BOND
     1     1     2   ar
     2     1     6   ar
     3     1    11    1
     4     2     3   ar
     5     2     7    1
     6     3     4   ar
     7     3     8    1
     8     4     5   ar
     9     4    14    1
    10     5     6   ar
    11     5     9    1
    12     6    10    1
    13    11    12    2
    14    11    13    2
    15    14    15    1
    16    14    23    1
    17    14    33    1
    18    15    16    1
    19    15    17    1
    20    15    18    1
    21    18    19    1
    22    18    25    1
    23    18    31    1
    24    19    20    1
    25    19    21    1
    26    19    22    1
    27    23    24    1
    28    25    26    1
    29    25    27    1
    30    27    28    1
    31    27    29    1
    32    27    30    1
    33    31    32    1
    34    33    37    2
    35    33    38    1
    36    34    35    1
    37    34    36    1
    38    34    38    1
    39    34    39    1
    40    39    40    1
    41    39    41    1
    42    39    42    1
@<TRIPOS>SUBSTRUCTURE
     1 1           1 GROUP             0 ****  ****    0  
@<TRIPOS>MOLECULE
Molecule Name_00148
    42    42     1     0     0
SMALL
NO_CHARGES
****
Generated from the CSD

@<TRIPOS>ATOM
     1 C1       3.5769  -0.5379  -0.0517   C.ar      1 1      0.0000
     2 C2       2.8597   0.1612  -0.9970   C.ar      1 1      0.0000
     3 C3       1.5004   0.3290  -0.8051   C.ar      1 1      0.0000
     4 C4       0.8556  -0.1923   0.3111   C.ar      1 1      0.0000
     5 C5       1.6189  -0.8882   1.2420   C.ar      1 1      0.0000
     6 C6       2.9794  -1.0679   1.0702   C.ar      1 1      0.0000
     7 H7       3.3506   0.5715  -1.8733   H         1 1      0.0000
     8 H8       0.9297   0.8808  -1.5441   H         1 1      0.0000
     9 H9       1.1412  -1.3006   2.1244   H         1 1      0.0000
    10 H10      3.5633  -1.6144   1.8034   H         1 1      0.0000
    11 N11      5.0201  -0.7233  -0.2455   N.pl3     1 1      0.0000
    12 O12      5.6419  -1.3455   0.6015   O.2       1 1      0.0000
    13 O13      5.5351  -0.2473  -1.2452   O.2       1 1      0.0000
    14 CL3     -0.6498  -0.0120   0.5110   C.3       1 1      0.0000
    15 CL1     -1.4376  -1.1696  -0.1656   C.3       1 1      0.0000
    16 H16     -1.2904  -1.1071  -1.2505   H         1 1      0.0000
    17 H17     -0.9995  -2.1211   0.1601   H         1 1      0.0000
    18 CL      -2.9493  -1.2173   0.1183   C.3       1 1      0.0000
    19 CL2     -3.5774   0.0893  -0.3309   C.3       1 1      0.0000
    20 H20     -4.6514  -0.0242  -0.4625   H         1 1      0.0000
    21 H21     -3.4070   0.8723   0.4051   H         1 1      0.0000
    22 H22     -3.1526   0.4159  -1.2778   H         1 1      0.0000
    23 OL2     -0.9015   0.0248   1.9102   O.3       1 1      0.0000
    24 H24     -1.8657   0.1796   2.0668   H         1 1      0.0000
    25 N25     -3.5633  -2.2955  -0.6113   N.3       1 1      0.0000
    26 H26     -4.5559  -2.2885  -0.3765   H         1 1      0.0000
    27 C27     -3.4673  -2.2508  -2.0714   C.3       1 1      0.0000
    28 H28     -2.4272  -2.2698  -2.3903   H         1 1      0.0000
    29 H29     -3.9741  -3.1039  -2.5175   H         1 1      0.0000
    30 H30     -3.9246  -1.3435  -2.4604   H         1 1      0.0000
    31 OL1     -3.1637  -1.3293   1.5202   O.3       1 1      0.0000
    32 H32     -4.1353  -1.3343   1.7048   H         1 1      0.0000
    33 CL4     -0.9814   1.3548  -0.1206   C.2       1 1      0.0000
    34 C34     -1.4536   3.6369   0.3217   C.3       1 1      0.0000
    35 H35     -1.1377   4.3879   1.0563   H         1 1      0.0000
    36 H36     -0.9201   3.8410  -0.6148   H         1 1      0.0000
    37 OL3     -1.0843   1.5316  -1.3032   O.2       1 1      0.0000
    38 OL4     -1.1360   2.2971   0.8016   O.3       1 1      0.0000
    39 C39     -2.9157   3.7155   0.1056   C.3       1 1      0.0000
    40 H40     -3.4533   3.5249   1.0321   H         1 1      0.0000
    41 H41     -3.1998   4.7022  -0.2543   H         1 1      0.0000
    42 H42     -3.2369   2.9810  -0.6299   H         1 1      0.0000
@<TRIPOS>BOND
     1     1     2   ar
     2     1     6   ar
     3     1    11    1
     4     2     3   ar
     5     2     7    1
     6     3     4   ar
     7     3     8    1
     8     4     5   ar
     9     4    14    1
    10     5     6   ar
    11     5     9    1
    12     6    10    1
    13    11    12    2
    14    11    13    2
    15    14    15    1
    16    14    23    1
    17    14    33    1
    18    15    16    1
    19    15    17    1
    20    15    18    1
    21    18    19    1
    22    18    25    1
    23    18    31    1
    24    19    20    1
    25    19    21    1
    26    19    22    1
    27    23    24    1
    28    25    26    1
    29    25    27    1
    30    27    28    1
    31    27    29    1
    32    27    30    1
    33    31    32    1
    34    33    37    2
    35    33    38    1
    36    34    35    1
    37    34    36    1
    38    34    38    1
    39    34    39    1
    40    39    40    1
    41    39    41    1
    42    39    42    1
@<TRIPOS>SUBSTRUCTURE
     1 1           1 GROUP             0 ****  ****    0  
@<TRIPOS>MOLECULE
Molecule Name_00149
    42    42     1     0     0
SMALL
NO_CHARGES
****
Generated from the CSD

@<TRIPOS>ATOM
     1 C1       3.5503  -0.5461  -0.0782   C.ar      1 1      0.0000
     2 C2       2.8784   0.2587  -0.9712   C.ar      1 1      0.0000
     3 C3       1.5181   0.4423  -0.8020   C.ar      1 1      0.0000
     4 C4       0.8280  -0.1670   0.2400   C.ar      1 1      0.0000
     5 C5       1.5465  -0.9685   1.1203   C.ar      1 1      0.0000
     6 C6       2.9071  -1.1658   0.9700   C.ar      1 1      0.0000
     7 H7       3.4049   0.7385  -1.7896   H         1 1      0.0000
     8 H8       0.9829   1.0771  -1.4998   H         1 1      0.0000
     9 H9       1.0329  -1.4512   1.9450   H         1 1      0.0000
    10 H10      3.4558  -1.7951   1.6630   H         1 1      0.0000
    11 N11      4.9941  -0.7492  -0.2486   N.pl3     1 1      0.0000
    12 O12      5.5756  -1.4656   0.5514   O.2       1 1      0.0000
    13 O13      5.5500  -0.1928  -1.1827   O.2       1 1      0.0000
    14 CL3     -0.6783   0.0321   0.4143   C.3       1 1      0.0000
    15 CL1     -1.4716  -1.0345  -0.3929   C.3       1 1      0.0000
    16 H16     -1.2902  -0.8719  -1.4621   H         1 1      0.0000
    17 H17     -1.0655  -2.0239  -0.1487   H         1 1      0.0000
    18 CL      -2.9919  -1.0703  -0.1573   C.3       1 1      0.0000
    19 CL2     -3.5759   0.2891  -0.4955   C.3       1 1      0.0000
    20 H20     -4.6478   0.2165  -0.6674   H         1 1      0.0000
    21 H21     -3.4099   0.9932   0.3173   H         1 1      0.0000
    22 H22     -3.1152   0.6941  -1.3941   H         1 1      0.0000
    23 OL2     -0.9714  -0.0592   1.8029   O.3       1 1      0.0000
    24 H24     -1.9361   0.1046   1.9467   H         1 1      0.0000
    25 N25     -3.6081  -2.0573  -1.0048   N.3       1 1      0.0000
    26 H26     -3.4183  -1.7841  -1.9690   H         1 1      0.0000
    27 C27     -3.1548  -3.4410  -0.8535   C.3       1 1      0.0000
    28 H28     -3.3306  -3.7958   0.1599   H         1 1      0.0000
    29 H29     -3.6856  -4.0979  -1.5394   H         1 1      0.0000
    30 H30     -2.0900  -3.5230  -1.0614   H         1 1      0.0000
    31 OL1     -3.2512  -1.3108   1.2206   O.3       1 1      0.0000
    32 H32     -4.2278  -1.3085   1.3766   H         1 1      0.0000
    33 CL4     -0.9591   1.4613  -0.0912   C.2       1 1      0.0000
    34 C34     -1.3920   3.7018   0.5565   C.3       1 1      0.0000
    35 H35     -1.0814   4.3704   1.3688   H         1 1      0.0000
    36 H36     -0.8258   3.9810  -0.3406   H         1 1      0.0000
    37 OL3     -1.0220   1.7535  -1.2535   O.2       1 1      0.0000
    38 OL4     -1.1200   2.3143   0.9132   O.3       1 1      0.0000
    39 C39     -2.8447   3.8384   0.3082   C.3       1 1      0.0000
    40 H40     -3.4144   3.5736   1.1965   H         1 1      0.0000
    41 H41     -3.0951   4.8621   0.0376   H         1 1      0.0000
    42 H42     -3.1602   3.1864  -0.5037   H         1 1      0.0000
@<TRIPOS>BOND
     1     1     2   ar
     2     1     6   ar
     3     1    11    1
     4     2     3   ar
     5     2     7    1
     6     3     4   ar
     7     3     8    1
     8     4     5   ar
     9     4    14    1
    10     5     6   ar
    11     5     9    1
    12     6    10    1
    13    11    12    2
    14    11    13    2
    15    14    15    1
    16    14    23    1
    17    14    33    1
    18    15    16    1
    19    15    17    1
    20    15    18    1
    21    18    19    1
    22    18    25    1
    23    18    31    1
    24    19    20    1
    25    19    21    1
    26    19    22    1
    27    23    24    1
    28    25    26    1
    29    25    27    1
    30    27    28    1
    31    27    29    1
    32    27    30    1
    33    31    32    1
    34    33    37    2
    35    33    38    1
    36    34    35    1
    37    34    36    1
    38    34    38    1
    39    34    39    1
    40    39    40    1
    41    39    41    1
    42    39    42    1
@<TRIPOS>SUBSTRUCTURE
     1 1           1 GROUP             0 ****  ****    0  
@<TRIPOS>MOLECULE
Molecule Name_00150
    42    42     1     0     0
SMALL
NO_CHARGES
****
Generated from the CSD

@<TRIPOS>ATOM
     1 C1       3.5559  -0.4984  -0.2296   C.ar      1 1      0.0000
     2 C2       3.0401   0.4216   0.6559   C.ar      1 1      0.0000
     3 C3       1.6678   0.4893   0.8147   C.ar      1 1      0.0000
     4 C4       0.8132  -0.3441   0.1017   C.ar      1 1      0.0000
     5 C5       1.3770  -1.2606  -0.7789   C.ar      1 1      0.0000
     6 C6       2.7464  -1.3456  -0.9532   C.ar      1 1      0.0000
     7 H7       3.6960   1.0790   1.2170   H         1 1      0.0000
     8 H8       1.2547   1.2096   1.5123   H         1 1      0.0000
     9 H9       0.7327  -1.9262  -1.3435   H         1 1      0.0000
    10 H10      3.1736  -2.0641  -1.6449   H         1 1      0.0000
    11 N11      5.0108  -0.5785  -0.4072   N.pl3     1 1      0.0000
    12 O12      5.4527  -1.3993  -1.1960   O.2       1 1      0.0000
    13 O13      5.7151   0.1793   0.2417   O.2       1 1      0.0000
    14 CL3     -0.7038  -0.2559   0.2746   C.3       1 1      0.0000
    15 CL1     -1.4302  -1.1397  -0.7788   C.3       1 1      0.0000
    16 H16     -1.3536  -0.6526  -1.7584   H         1 1      0.0000
    17 H17     -0.8950  -2.0942  -0.8560   H         1 1      0.0000
    18 CL      -2.9130  -1.4442  -0.5016   C.3       1 1      0.0000
    19 CL2     -3.0166  -2.2919   0.7530   C.3       1 1      0.0000
    20 H20     -3.7481  -3.0866   0.6222   H         1 1      0.0000
    21 H21     -2.0581  -2.7491   0.9898   H         1 1      0.0000
    22 H22     -3.3225  -1.6863   1.6036   H         1 1      0.0000
    23 OL2     -1.0164  -0.6789   1.5959   O.3       1 1      0.0000
    24 H24     -1.9095  -0.3367   1.8479   H         1 1      0.0000
    25 N25     -3.6453  -0.2230  -0.2911   N.3       1 1      0.0000
    26 H26     -3.2168   0.2493   0.5050   H         1 1      0.0000
    27 C27     -3.6714   0.7366  -1.3963   C.3       1 1      0.0000
    28 H28     -4.6526   0.7574  -1.8659   H         1 1      0.0000
    29 H29     -3.4440   1.7397  -1.0417   H         1 1      0.0000
    30 H30     -2.9382   0.4710  -2.1550   H         1 1      0.0000
    31 OL1     -3.4469  -2.2104  -1.5747   O.3       1 1      0.0000
    32 H32     -4.3928  -2.4278  -1.3846   H         1 1      0.0000
    33 CL4     -1.0446   1.2381   0.1045   C.2       1 1      0.0000
    34 C34     -1.7269   3.2154   1.2231   C.3       1 1      0.0000
    35 H35     -0.8816   3.8021   0.8427   H         1 1      0.0000
    36 H36     -2.5779   3.3818   0.5512   H         1 1      0.0000
    37 OL3     -1.0057   1.8116  -0.9490   O.2       1 1      0.0000
    38 OL4     -1.3821   1.7990   1.2593   O.3       1 1      0.0000
    39 C39     -2.0691   3.6427   2.5982   C.3       1 1      0.0000
    40 H40     -1.2268   3.4913   3.2700   H         1 1      0.0000
    41 H41     -2.3342   4.6977   2.6194   H         1 1      0.0000
    42 H42     -2.9138   3.0732   2.9800   H         1 1      0.0000
@<TRIPOS>BOND
     1     1     2   ar
     2     1     6   ar
     3     1    11    1
     4     2     3   ar
     5     2     7    1
     6     3     4   ar
     7     3     8    1
     8     4     5   ar
     9     4    14    1
    10     5     6   ar
    11     5     9    1
    12     6    10    1
    13    11    12    2
    14    11    13    2
    15    14    15    1
    16    14    23    1
    17    14    33    1
    18    15    16    1
    19    15    17    1
    20    15    18    1
    21    18    19    1
    22    18    25    1
    23    18    31    1
    24    19    20    1
    25    19    21    1
    26    19    22    1
    27    23    24    1
    28    25    26    1
    29    25    27    1
    30    27    28    1
    31    27    29    1
    32    27    30    1
    33    31    32    1
    34    33    37    2
    35    33    38    1
    36    34    35    1
    37    34    36    1
    38    34    38    1
    39    34    39    1
    40    39    40    1
    41    39    41    1
    42    39    42    1
@<TRIPOS>SUBSTRUCTURE
     1 1           1 GROUP             0 ****  ****    0  
@<TRIPOS>MOLECULE
Molecule Name_00151
    42    42     1     0     0
SMALL
NO_CHARGES
****
Generated from the CSD

@<TRIPOS>ATOM
     1 C1       2.8845  -0.6559  -0.1791   C.ar      1 1      0.0000
     2 C2       1.9873  -0.1876  -1.1130   C.ar      1 1      0.0000
     3 C3       0.6940   0.0880  -0.7076   C.ar      1 1      0.0000
     4 C4       0.2912  -0.1005   0.6098   C.ar      1 1      0.0000
     5 C5       1.2307  -0.5716   1.5203   C.ar      1 1      0.0000
     6 C6       2.5292  -0.8535   1.1367   C.ar      1 1      0.0000
     7 H7       2.2885  -0.0380  -2.1446   H         1 1      0.0000
     8 H8      -0.0172   0.4596  -1.4371   H         1 1      0.0000
     9 H9       0.9436  -0.7223   2.5556   H         1 1      0.0000
    10 H10      3.2522  -1.2222   1.8568   H         1 1      0.0000
    11 N11      4.2596  -0.9529  -0.5982   N.pl3     1 1      0.0000
    12 O12      5.0433  -1.3674   0.2416   O.2       1 1      0.0000
    13 O13      4.5592  -0.7723  -1.7682   O.2       1 1      0.0000
    14 CL3     -1.1436   0.1961   1.0484   C.3       1 1      0.0000
    15 CL1     -2.1496  -0.1585  -0.0833   C.3       1 1      0.0000
    16 H16     -3.1605   0.1048   0.2506   H         1 1      0.0000
    17 H17     -1.9275   0.4730  -0.9523   H         1 1      0.0000
    18 CL      -2.1575  -1.6256  -0.5479   C.3       1 1      0.0000
    19 CL2     -3.5753  -2.0172  -0.9219   C.3       1 1      0.0000
    20 H20     -3.5846  -2.9606  -1.4639   H         1 1      0.0000
    21 H21     -4.1913  -2.1314  -0.0324   H         1 1      0.0000
    22 H22     -4.0309  -1.2584  -1.5546   H         1 1      0.0000
    23 OL2     -1.4067  -0.5659   2.2200   O.3       1 1      0.0000
    24 H24     -2.3176  -0.3623   2.5468   H         1 1      0.0000
    25 N25     -1.3165  -1.7903  -1.7044   N.3       1 1      0.0000
    26 H26     -1.3343  -2.7805  -1.9486   H         1 1      0.0000
    27 C27     -1.6867  -1.0445  -2.9085   C.3       1 1      0.0000
    28 H28     -1.4531   0.0120  -2.7949   H         1 1      0.0000
    29 H29     -1.1471  -1.4196  -3.7757   H         1 1      0.0000
    30 H30     -2.7525  -1.1365  -3.1067   H         1 1      0.0000
    31 OL1     -1.7573  -2.4646   0.5289   O.3       1 1      0.0000
    32 H32     -1.7868  -3.4094   0.2380   H         1 1      0.0000
    33 CL4     -1.1619   1.7011   1.3828   C.2       1 1      0.0000
    34 C34     -1.2176   3.8926   0.4771   C.3       1 1      0.0000
    35 H35     -2.0963   4.1854   1.0650   H         1 1      0.0000
    36 H36     -0.3252   4.2149   1.0277   H         1 1      0.0000
    37 OL3     -1.1455   2.1319   2.5028   O.2       1 1      0.0000
    38 OL4     -1.1975   2.4472   0.2855   O.3       1 1      0.0000
    39 C39     -1.2565   4.5347  -0.8558   C.3       1 1      0.0000
    40 H40     -2.1443   4.2291  -1.4054   H         1 1      0.0000
    41 H41     -1.2726   5.6185  -0.7615   H         1 1      0.0000
    42 H42     -0.3829   4.2585  -1.4426   H         1 1      0.0000
@<TRIPOS>BOND
     1     1     2   ar
     2     1     6   ar
     3     1    11    1
     4     2     3   ar
     5     2     7    1
     6     3     4   ar
     7     3     8    1
     8     4     5   ar
     9     4    14    1
    10     5     6   ar
    11     5     9    1
    12     6    10    1
    13    11    12    2
    14    11    13    2
    15    14    15    1
    16    14    23    1
    17    14    33    1
    18    15    16    1
    19    15    17    1
    20    15    18    1
    21    18    19    1
    22    18    25    1
    23    18    31    1
    24    19    20    1
    25    19    21    1
    26    19    22    1
    27    23    24    1
    28    25    26    1
    29    25    27    1
    30    27    28    1
    31    27    29    1
    32    27    30    1
    33    31    32    1
    34    33    37    2
    35    33    38    1
    36    34    35    1
    37    34    36    1
    38    34    38    1
    39    34    39    1
    40    39    40    1
    41    39    41    1
    42    39    42    1
@<TRIPOS>SUBSTRUCTURE
     1 1           1 GROUP             0 ****  ****    0  
@<TRIPOS>MOLECULE
Molecule Name_00152
    42    42     1     0     0
SMALL
NO_CHARGES
****
Generated from the CSD

@<TRIPOS>ATOM
     1 C1       3.6155  -0.4396  -0.1936   C.ar      1 1      0.0000
     2 C2       2.7970  -0.6716  -1.2766   C.ar      1 1      0.0000
     3 C3       1.4273  -0.6048  -1.0967   C.ar      1 1      0.0000
     4 C4       0.8722  -0.3136   0.1444   C.ar      1 1      0.0000
     5 C5       1.7356  -0.0829   1.2096   C.ar      1 1      0.0000
     6 C6       3.1083  -0.1444   1.0523   C.ar      1 1      0.0000
     7 H7       3.2176  -0.9016  -2.2500   H         1 1      0.0000
     8 H8       0.7767  -0.7836  -1.9457   H         1 1      0.0000
     9 H9       1.3283   0.1516   2.1874   H         1 1      0.0000
    10 H10      3.7712   0.0362   1.8921   H         1 1      0.0000
    11 N11      5.0708  -0.5090  -0.3724   N.pl3     1 1      0.0000
    12 O12      5.7831  -0.3009   0.5974   O.2       1 1      0.0000
    13 O13      5.5050  -0.7717  -1.4832   O.2       1 1      0.0000
    14 CL3     -0.6436  -0.2523   0.3381   C.3       1 1      0.0000
    15 CL1     -1.3587  -1.2782  -0.5863   C.3       1 1      0.0000
    16 H16     -1.1909  -0.9866  -1.6301   H         1 1      0.0000
    17 H17     -0.8819  -2.2566  -0.4492   H         1 1      0.0000
    18 CL      -2.8722  -1.4489  -0.3662   C.3       1 1      0.0000
    19 CL2     -3.1109  -1.9723   1.0382   C.3       1 1      0.0000
    20 H20     -3.9278  -2.6908   1.0484   H         1 1      0.0000
    21 H21     -2.2206  -2.4659   1.4223   H         1 1      0.0000
    22 H22     -3.3662  -1.1593   1.7147   H         1 1      0.0000
    23 OL2     -0.9186  -0.5229   1.7070   O.3       1 1      0.0000
    24 H24     -1.7673  -0.0855   1.9645   H         1 1      0.0000
    25 N25     -3.5453  -0.1841  -0.5043   N.3       1 1      0.0000
    26 H26     -2.8497   0.4921  -0.8194   H         1 1      0.0000
    27 C27     -4.6617  -0.1237  -1.4494   C.3       1 1      0.0000
    28 H28     -5.4438  -0.8257  -1.1679   H         1 1      0.0000
    29 H29     -5.0942   0.8744  -1.4722   H         1 1      0.0000
    30 H30     -4.3293  -0.3721  -2.4552   H         1 1      0.0000
    31 OL1     -3.3744  -2.4242  -1.2719   O.3       1 1      0.0000
    32 H32     -4.3029  -2.6568  -1.0228   H         1 1      0.0000
    33 CL4     -1.0369   1.1993  -0.0017   C.2       1 1      0.0000
    34 C34     -1.7078   3.2912   0.8927   C.3       1 1      0.0000
    35 H35     -0.9040   3.8407   0.3872   H         1 1      0.0000
    36 H36     -2.6019   3.3506   0.2599   H         1 1      0.0000
    37 OL3     -1.0775   1.6308  -1.1209   O.2       1 1      0.0000
    38 OL4     -1.3208   1.8993   1.0899   O.3       1 1      0.0000
    39 C39     -1.9794   3.8875   2.2198   C.3       1 1      0.0000
    40 H40     -1.0945   3.8428   2.8511   H         1 1      0.0000
    41 H41     -2.2731   4.9305   2.1212   H         1 1      0.0000
    42 H42     -2.7831   3.3554   2.7245   H         1 1      0.0000
@<TRIPOS>BOND
     1     1     2   ar
     2     1     6   ar
     3     1    11    1
     4     2     3   ar
     5     2     7    1
     6     3     4   ar
     7     3     8    1
     8     4     5   ar
     9     4    14    1
    10     5     6   ar
    11     5     9    1
    12     6    10    1
    13    11    12    2
    14    11    13    2
    15    14    15    1
    16    14    23    1
    17    14    33    1
    18    15    16    1
    19    15    17    1
    20    15    18    1
    21    18    19    1
    22    18    25    1
    23    18    31    1
    24    19    20    1
    25    19    21    1
    26    19    22    1
    27    23    24    1
    28    25    26    1
    29    25    27    1
    30    27    28    1
    31    27    29    1
    32    27    30    1
    33    31    32    1
    34    33    37    2
    35    33    38    1
    36    34    35    1
    37    34    36    1
    38    34    38    1
    39    34    39    1
    40    39    40    1
    41    39    41    1
    42    39    42    1
@<TRIPOS>SUBSTRUCTURE
     1 1           1 GROUP             0 ****  ****    0  
@<TRIPOS>MOLECULE
Molecule Name_00153
    42    42     1     0     0
SMALL
NO_CHARGES
****
Generated from the CSD

@<TRIPOS>ATOM
     1 C1       3.4933  -0.3791  -0.2392   C.ar      1 1      0.0000
     2 C2       2.6756  -0.4256  -1.3464   C.ar      1 1      0.0000
     3 C3       1.3057  -0.3935  -1.1586   C.ar      1 1      0.0000
     4 C4       0.7496  -0.3186   0.1136   C.ar      1 1      0.0000
     5 C5       1.6122  -0.2701   1.2030   C.ar      1 1      0.0000
     6 C6       2.9851  -0.3009   1.0384   C.ar      1 1      0.0000
     7 H7       3.0970  -0.4860  -2.3444   H         1 1      0.0000
     8 H8       0.6557  -0.4271  -2.0261   H         1 1      0.0000
     9 H9       1.2042  -0.2061   2.2062   H         1 1      0.0000
    10 H10      3.6473  -0.2641   1.8971   H         1 1      0.0000
    11 N11      4.9488  -0.4138  -0.4263   N.pl3     1 1      0.0000
    12 O12      5.6604  -0.3718   0.5653   O.2       1 1      0.0000
    13 O13      5.3839  -0.4831  -1.5652   O.2       1 1      0.0000
    14 CL3     -0.7664  -0.2945   0.3139   C.3       1 1      0.0000
    15 CL1     -1.4789  -1.1501  -0.7718   C.3       1 1      0.0000
    16 H16     -1.4811  -0.5898  -1.7145   H         1 1      0.0000
    17 H17     -0.8840  -2.0559  -0.9421   H         1 1      0.0000
    18 CL      -2.9230  -1.5787  -0.4572   C.3       1 1      0.0000
    19 CL2     -2.9121  -2.5055   0.7447   C.3       1 1      0.0000
    20 H20     -3.6003  -3.3354   0.5980   H         1 1      0.0000
    21 H21     -1.9172  -2.9149   0.9069   H         1 1      0.0000
    22 H22     -3.2104  -1.9729   1.6452   H         1 1      0.0000
    23 OL2     -1.0410  -0.7943   1.6167   O.3       1 1      0.0000
    24 H24     -1.9364  -0.4881   1.9042   H         1 1      0.0000
    25 N25     -3.7303  -0.4294  -0.1421   N.3       1 1      0.0000
    26 H26     -3.2977   0.0293   0.6596   H         1 1      0.0000
    27 C27     -3.8815   0.5847  -1.1870   C.3       1 1      0.0000
    28 H28     -4.7461   0.3693  -1.8113   H         1 1      0.0000
    29 H29     -4.0166   1.5718  -0.7498   H         1 1      0.0000
    30 H30     -3.0012   0.6145  -1.8257   H         1 1      0.0000
    31 OL1     -3.4469  -2.3163  -1.5550   O.3       1 1      0.0000
    32 H32     -4.3659  -2.6136  -1.3426   H         1 1      0.0000
    33 CL4     -1.1630   1.1928   0.2253   C.2       1 1      0.0000
    34 C34     -1.8678   3.0930   1.4577   C.3       1 1      0.0000
    35 H35     -2.4505   3.3506   0.5646   H         1 1      0.0000
    36 H36     -2.4986   3.2848   2.3345   H         1 1      0.0000
    37 OL3     -1.1831   1.8139  -0.8015   O.2       1 1      0.0000
    38 OL4     -1.4749   1.6894   1.4162   O.3       1 1      0.0000
    39 C39     -0.6387   3.9149   1.5217   C.3       1 1      0.0000
    40 H40     -0.0114   3.7393   0.6502   H         1 1      0.0000
    41 H41     -0.8844   4.9743   1.5544   H         1 1      0.0000
    42 H42     -0.0593   3.6738   2.4104   H         1 1      0.0000
@<TRIPOS>BOND
     1     1     2   ar
     2     1     6   ar
     3     1    11    1
     4     2     3   ar
     5     2     7    1
     6     3     4   ar
     7     3     8    1
     8     4     5   ar
     9     4    14    1
    10     5     6   ar
    11     5     9    1
    12     6    10    1
    13    11    12    2
    14    11    13    2
    15    14    15    1
    16    14    23    1
    17    14    33    1
    18    15    16    1
    19    15    17    1
    20    15    18    1
    21    18    19    1
    22    18    25    1
    23    18    31    1
    24    19    20    1
    25    19    21    1
    26    19    22    1
    27    23    24    1
    28    25    26    1
    29    25    27    1
    30    27    28    1
    31    27    29    1
    32    27    30    1
    33    31    32    1
    34    33    37    2
    35    33    38    1
    36    34    35    1
    37    34    36    1
    38    34    38    1
    39    34    39    1
    40    39    40    1
    41    39    41    1
    42    39    42    1
@<TRIPOS>SUBSTRUCTURE
     1 1           1 GROUP             0 ****  ****    0  
@<TRIPOS>MOLECULE
Molecule Name_00154
    42    42     1     0     0
SMALL
NO_CHARGES
****
Generated from the CSD

@<TRIPOS>ATOM
     1 C1       3.5908  -0.5263  -0.2093   C.ar      1 1      0.0000
     2 C2       2.7839  -0.4764  -1.3242   C.ar      1 1      0.0000
     3 C3       1.4158  -0.3773  -1.1466   C.ar      1 1      0.0000
     4 C4       0.8508  -0.3304   0.1230   C.ar      1 1      0.0000
     5 C5       1.7030  -0.3799   1.2207   C.ar      1 1      0.0000
     6 C6       3.0738  -0.4790   1.0662   C.ar      1 1      0.0000
     7 H7       3.2121  -0.5140  -2.3205   H         1 1      0.0000
     8 H8       0.7744  -0.3348  -2.0201   H         1 1      0.0000
     9 H9       1.2881  -0.3396   2.2223   H         1 1      0.0000
    10 H10      3.7276  -0.5185   1.9312   H         1 1      0.0000
    11 N11      5.0442  -0.6328  -0.3857   N.pl3     1 1      0.0000
    12 O12      5.7461  -0.6759   0.6126   O.2       1 1      0.0000
    13 O13      5.4871  -0.6735  -1.5230   O.2       1 1      0.0000
    14 CL3     -0.6636  -0.2316   0.3117   C.3       1 1      0.0000
    15 CL1     -1.4101  -0.9956  -0.8186   C.3       1 1      0.0000
    16 H16     -1.3769  -0.3903  -1.7325   H         1 1      0.0000
    17 H17     -0.8605  -1.9210  -1.0304   H         1 1      0.0000
    18 CL      -2.8764  -1.3652  -0.5329   C.3       1 1      0.0000
    19 CL2     -2.9224  -2.3379   0.6312   C.3       1 1      0.0000
    20 H20     -3.6549  -3.1218   0.4500   H         1 1      0.0000
    21 H21     -1.9525  -2.8081   0.7795   H         1 1      0.0000
    22 H22     -3.1950  -1.8255   1.5514   H         1 1      0.0000
    23 OL2     -0.9794  -0.7750   1.5874   O.3       1 1      0.0000
    24 H24     -1.8544  -0.4243   1.8866   H         1 1      0.0000
    25 N25     -3.6302  -0.1911  -0.1789   N.3       1 1      0.0000
    26 H26     -3.1927   0.2058   0.6526   H         1 1      0.0000
    27 C27     -3.7049   0.8778  -1.1763   C.3       1 1      0.0000
    28 H28     -4.7277   1.0117  -1.5223   H         1 1      0.0000
    29 H29     -3.3628   1.8215  -0.7567   H         1 1      0.0000
    30 H30     -3.0833   0.6451  -2.0384   H         1 1      0.0000
    31 OL1     -3.4245  -2.0326  -1.6634   O.3       1 1      0.0000
    32 H32     -4.3589  -2.2927  -1.4703   H         1 1      0.0000
    33 CL4     -0.9770   1.2778   0.2891   C.2       1 1      0.0000
    34 C34     -1.5714   3.1592   1.6057   C.3       1 1      0.0000
    35 H35     -1.3586   3.5196   2.6198   H         1 1      0.0000
    36 H36     -0.9486   3.7344   0.9095   H         1 1      0.0000
    37 OL3     -0.9597   1.9440  -0.7091   O.2       1 1      0.0000
    38 OL4     -1.2644   1.7376   1.5008   O.3       1 1      0.0000
    39 C39     -3.0042   3.3471   1.2858   C.3       1 1      0.0000
    40 H40     -3.5151   2.3884   1.2266   H         1 1      0.0000
    41 H41     -3.4947   3.9459   2.0504   H         1 1      0.0000
    42 H42     -3.1228   3.8540   0.3304   H         1 1      0.0000
@<TRIPOS>BOND
     1     1     2   ar
     2     1     6   ar
     3     1    11    1
     4     2     3   ar
     5     2     7    1
     6     3     4   ar
     7     3     8    1
     8     4     5   ar
     9     4    14    1
    10     5     6   ar
    11     5     9    1
    12     6    10    1
    13    11    12    2
    14    11    13    2
    15    14    15    1
    16    14    23    1
    17    14    33    1
    18    15    16    1
    19    15    17    1
    20    15    18    1
    21    18    19    1
    22    18    25    1
    23    18    31    1
    24    19    20    1
    25    19    21    1
    26    19    22    1
    27    23    24    1
    28    25    26    1
    29    25    27    1
    30    27    28    1
    31    27    29    1
    32    27    30    1
    33    31    32    1
    34    33    37    2
    35    33    38    1
    36    34    35    1
    37    34    36    1
    38    34    38    1
    39    34    39    1
    40    39    40    1
    41    39    41    1
    42    39    42    1
@<TRIPOS>SUBSTRUCTURE
     1 1           1 GROUP             0 ****  ****    0  
@<TRIPOS>MOLECULE
Molecule Name_00155
    42    42     1     0     0
SMALL
NO_CHARGES
****
Generated from the CSD

@<TRIPOS>ATOM
     1 C1       3.5862  -0.3684  -0.1496   C.ar      1 1      0.0000
     2 C2       3.0415  -1.2035   0.8004   C.ar      1 1      0.0000
     3 C3       1.6679  -1.2139   0.9623   C.ar      1 1      0.0000
     4 C4       0.8407  -0.4033   0.1929   C.ar      1 1      0.0000
     5 C5       1.4328   0.4217  -0.7570   C.ar      1 1      0.0000
     6 C6       2.8040   0.4480  -0.9359   C.ar      1 1      0.0000
     7 H7       3.6761  -1.8396   1.4085   H         1 1      0.0000
     8 H8       1.2318  -1.8710   1.7067   H         1 1      0.0000
     9 H9       0.8096   1.0602  -1.3741   H         1 1      0.0000
    10 H10      3.2536   1.0977  -1.6795   H         1 1      0.0000
    11 N11      5.0429  -0.3481  -0.3296   N.pl3     1 1      0.0000
    12 O12      5.5106   0.3976  -1.1759   O.2       1 1      0.0000
    13 O13      5.7227  -1.0779   0.3750   O.2       1 1      0.0000
    14 CL3     -0.6764  -0.4123   0.3852   C.3       1 1      0.0000
    15 CL1     -1.3986  -0.7491  -0.9502   C.3       1 1      0.0000
    16 H16     -1.1445   0.0194  -1.6902   H         1 1      0.0000
    17 H17     -0.9993  -1.6984  -1.3282   H         1 1      0.0000
    18 CL      -2.9312  -0.8692  -0.8804   C.3       1 1      0.0000
    19 CL2     -3.4696  -1.1349  -2.2743   C.3       1 1      0.0000
    20 H20     -4.5546  -1.2138  -2.2602   H         1 1      0.0000
    21 H21     -3.1972  -0.3293  -2.9530   H         1 1      0.0000
    22 H22     -3.0673  -2.0641  -2.6724   H         1 1      0.0000
    23 OL2     -0.9824  -1.3753   1.3859   O.3       1 1      0.0000
    24 H24     -1.7523  -1.0602   1.9208   H         1 1      0.0000
    25 N25     -3.3106  -1.9640  -0.0264   N.3       1 1      0.0000
    26 H26     -2.4492  -2.3737   0.3351   H         1 1      0.0000
    27 C27     -4.1526  -1.6468   1.1284   C.3       1 1      0.0000
    28 H28     -5.1558  -1.3710   0.8101   H         1 1      0.0000
    29 H29     -4.2319  -2.5032   1.7948   H         1 1      0.0000
    30 H30     -3.7356  -0.8155   1.6930   H         1 1      0.0000
    31 OL1     -3.4827   0.3670  -0.4428   O.3       1 1      0.0000
    32 H32     -4.4631   0.3539  -0.5727   H         1 1      0.0000
    33 CL4     -1.0292   1.0017   0.8886   C.2       1 1      0.0000
    34 C34     -1.1031   3.3040   0.3224   C.3       1 1      0.0000
    35 H35     -0.8476   3.4837   1.3739   H         1 1      0.0000
    36 H36     -0.5076   3.9936  -0.2885   H         1 1      0.0000
    37 OL3     -1.4533   1.2277   1.9883   O.2       1 1      0.0000
    38 OL4     -0.8055   1.9233  -0.0403   O.3       1 1      0.0000
    39 C39     -2.5472   3.5390   0.0991   C.3       1 1      0.0000
    40 H40     -3.1463   2.8663   0.7093   H         1 1      0.0000
    41 H41     -2.8161   4.5611   0.3576   H         1 1      0.0000
    42 H42     -2.8082   3.3734  -0.9441   H         1 1      0.0000
@<TRIPOS>BOND
     1     1     2   ar
     2     1     6   ar
     3     1    11    1
     4     2     3   ar
     5     2     7    1
     6     3     4   ar
     7     3     8    1
     8     4     5   ar
     9     4    14    1
    10     5     6   ar
    11     5     9    1
    12     6    10    1
    13    11    12    2
    14    11    13    2
    15    14    15    1
    16    14    23    1
    17    14    33    1
    18    15    16    1
    19    15    17    1
    20    15    18    1
    21    18    19    1
    22    18    25    1
    23    18    31    1
    24    19    20    1
    25    19    21    1
    26    19    22    1
    27    23    24    1
    28    25    26    1
    29    25    27    1
    30    27    28    1
    31    27    29    1
    32    27    30    1
    33    31    32    1
    34    33    37    2
    35    33    38    1
    36    34    35    1
    37    34    36    1
    38    34    38    1
    39    34    39    1
    40    39    40    1
    41    39    41    1
    42    39    42    1
@<TRIPOS>SUBSTRUCTURE
     1 1           1 GROUP             0 ****  ****    0  
@<TRIPOS>MOLECULE
Molecule Name_00156
    42    42     1     0     0
SMALL
NO_CHARGES
****
Generated from the CSD

@<TRIPOS>ATOM
     1 C1       3.4816  -0.2313  -0.1822   C.ar      1 1      0.0000
     2 C2       2.9791  -1.0322   0.8192   C.ar      1 1      0.0000
     3 C3       1.6079  -1.0994   0.9868   C.ar      1 1      0.0000
     4 C4       0.7414  -0.3788   0.1725   C.ar      1 1      0.0000
     5 C5       1.2916   0.4143  -0.8283   C.ar      1 1      0.0000
     6 C6       2.6597   0.4964  -1.0138   C.ar      1 1      0.0000
     7 H7       3.6445  -1.5982   1.4627   H         1 1      0.0000
     8 H8       1.2050  -1.7302   1.7717   H         1 1      0.0000
     9 H9       0.6374   0.9827  -1.4809   H         1 1      0.0000
    10 H10      3.0764   1.1204  -1.7975   H         1 1      0.0000
    11 N11      4.9354  -0.1512  -0.3687   N.pl3     1 1      0.0000
    12 O12      5.3653   0.5631  -1.2609   O.2       1 1      0.0000
    13 O13      5.6507  -0.8025   0.3766   O.2       1 1      0.0000
    14 CL3     -0.7734  -0.4497   0.3709   C.3       1 1      0.0000
    15 CL1     -1.4795  -0.9025  -0.9385   C.3       1 1      0.0000
    16 H16     -1.2638  -0.1693  -1.7251   H         1 1      0.0000
    17 H17     -1.0346  -1.8526  -1.2593   H         1 1      0.0000
    18 CL      -3.0043  -1.0925  -0.8555   C.3       1 1      0.0000
    19 CL2     -3.5303  -1.4690  -2.2285   C.3       1 1      0.0000
    20 H20     -4.6102  -1.5997  -2.2053   H         1 1      0.0000
    21 H21     -3.2982  -0.6943  -2.9562   H         1 1      0.0000
    22 H22     -3.0836  -2.4002  -2.5706   H         1 1      0.0000
    23 OL2     -1.0310  -1.3634   1.4299   O.3       1 1      0.0000
    24 H24     -1.8148  -1.0539   1.9476   H         1 1      0.0000
    25 N25     -3.3290  -2.1502   0.0653   N.3       1 1      0.0000
    26 H26     -2.4483  -2.4946   0.4478   H         1 1      0.0000
    27 C27     -4.1844  -1.8042   1.2018   C.3       1 1      0.0000
    28 H28     -5.2002  -1.5976   0.8711   H         1 1      0.0000
    29 H29     -4.2212  -2.6210   1.9196   H         1 1      0.0000
    30 H30     -3.8080  -0.9205   1.7129   H         1 1      0.0000
    31 OL1     -3.6151   0.1398  -0.4922   O.3       1 1      0.0000
    32 H32     -4.5938   0.0711  -0.6173   H         1 1      0.0000
    33 CL4     -1.1943   0.9736   0.7883   C.2       1 1      0.0000
    34 C34     -1.3810   3.2305   0.0827   C.3       1 1      0.0000
    35 H35     -1.6161   3.7564  -0.8509   H         1 1      0.0000
    36 H36     -2.2731   3.2671   0.7201   H         1 1      0.0000
    37 OL3     -1.6279   1.2456   1.8738   O.2       1 1      0.0000
    38 OL4     -1.0166   1.8463  -0.1960   O.3       1 1      0.0000
    39 C39     -0.2387   3.8808   0.7629   C.3       1 1      0.0000
    40 H40      0.6484   3.8587   0.1334   H         1 1      0.0000
    41 H41     -0.4665   4.9199   0.9913   H         1 1      0.0000
    42 H42     -0.0050   3.3721   1.6959   H         1 1      0.0000
@<TRIPOS>BOND
     1     1     2   ar
     2     1     6   ar
     3     1    11    1
     4     2     3   ar
     5     2     7    1
     6     3     4   ar
     7     3     8    1
     8     4     5   ar
     9     4    14    1
    10     5     6   ar
    11     5     9    1
    12     6    10    1
    13    11    12    2
    14    11    13    2
    15    14    15    1
    16    14    23    1
    17    14    33    1
    18    15    16    1
    19    15    17    1
    20    15    18    1
    21    18    19    1
    22    18    25    1
    23    18    31    1
    24    19    20    1
    25    19    21    1
    26    19    22    1
    27    23    24    1
    28    25    26    1
    29    25    27    1
    30    27    28    1
    31    27    29    1
    32    27    30    1
    33    31    32    1
    34    33    37    2
    35    33    38    1
    36    34    35    1
    37    34    36    1
    38    34    38    1
    39    34    39    1
    40    39    40    1
    41    39    41    1
    42    39    42    1
@<TRIPOS>SUBSTRUCTURE
     1 1           1 GROUP             0 ****  ****    0  
@<TRIPOS>MOLECULE
Molecule Name_00157
    42    42     1     0     0
SMALL
NO_CHARGES
****
Generated from the CSD

@<TRIPOS>ATOM
     1 C1       3.5731  -0.3786  -0.1333   C.ar      1 1      0.0000
     2 C2       3.0386  -1.1323   0.8878   C.ar      1 1      0.0000
     3 C3       1.6698  -1.1041   1.0840   C.ar      1 1      0.0000
     4 C4       0.8373  -0.3350   0.2785   C.ar      1 1      0.0000
     5 C5       1.4190   0.4077  -0.7429   C.ar      1 1      0.0000
     6 C6       2.7853   0.3943  -0.9571   C.ar      1 1      0.0000
     7 H7       3.6774  -1.7353   1.5246   H         1 1      0.0000
     8 H8       1.2416  -1.6973   1.8846   H         1 1      0.0000
     9 H9       0.7913   1.0122  -1.3892   H         1 1      0.0000
    10 H10      3.2269   0.9798  -1.7567   H         1 1      0.0000
    11 N11      5.0248  -0.3999  -0.3502   N.pl3     1 1      0.0000
    12 O12      5.4834   0.2737  -1.2597   O.2       1 1      0.0000
    13 O13      5.7097  -1.0902   0.3884   O.2       1 1      0.0000
    14 CL3     -0.6742  -0.3004   0.5084   C.3       1 1      0.0000
    15 CL1     -1.4369  -0.7183  -0.7808   C.3       1 1      0.0000
    16 H16     -1.1885  -0.0101  -1.5806   H         1 1      0.0000
    17 H17     -1.0644  -1.6999  -1.0988   H         1 1      0.0000
    18 CL      -2.9690  -0.8030  -0.6646   C.3       1 1      0.0000
    19 CL2     -3.5481  -1.1577  -2.0219   C.3       1 1      0.0000
    20 H20     -4.6327  -1.2276  -1.9722   H         1 1      0.0000
    21 H21     -3.2907  -0.4016  -2.7606   H         1 1      0.0000
    22 H22     -3.1624  -2.1145  -2.3677   H         1 1      0.0000
    23 OL2     -0.9711  -1.1827   1.5835   O.3       1 1      0.0000
    24 H24     -1.9402  -1.1495   1.7780   H         1 1      0.0000
    25 N25     -3.3453  -1.8259   0.2756   N.3       1 1      0.0000
    26 H26     -3.8971  -1.3737   1.0046   H         1 1      0.0000
    27 C27     -4.1433  -2.9408  -0.2375   C.3       1 1      0.0000
    28 H28     -3.6108  -3.4642  -1.0289   H         1 1      0.0000
    29 H29     -4.3619  -3.6549   0.5537   H         1 1      0.0000
    30 H30     -5.0880  -2.5844  -0.6430   H         1 1      0.0000
    31 OL1     -3.4869   0.4721  -0.3043   O.3       1 1      0.0000
    32 H32     -4.4735   0.4240  -0.2545   H         1 1      0.0000
    33 CL4     -0.9886   1.1528   0.9166   C.2       1 1      0.0000
    34 C34     -1.0364   3.4093   0.1871   C.3       1 1      0.0000
    35 H35     -0.7504   3.6593   1.2162   H         1 1      0.0000
    36 H36     -0.4449   4.0415  -0.4866   H         1 1      0.0000
    37 OL3     -1.3798   1.4656   2.0072   O.2       1 1      0.0000
    38 OL4     -0.7728   2.0006  -0.0818   O.3       1 1      0.0000
    39 C39     -2.4814   3.6559  -0.0169   C.3       1 1      0.0000
    40 H40     -3.0763   3.0407   0.6550   H         1 1      0.0000
    41 H41     -2.7253   4.6990   0.1735   H         1 1      0.0000
    42 H42     -2.7724   3.4208  -1.0385   H         1 1      0.0000
@<TRIPOS>BOND
     1     1     2   ar
     2     1     6   ar
     3     1    11    1
     4     2     3   ar
     5     2     7    1
     6     3     4   ar
     7     3     8    1
     8     4     5   ar
     9     4    14    1
    10     5     6   ar
    11     5     9    1
    12     6    10    1
    13    11    12    2
    14    11    13    2
    15    14    15    1
    16    14    23    1
    17    14    33    1
    18    15    16    1
    19    15    17    1
    20    15    18    1
    21    18    19    1
    22    18    25    1
    23    18    31    1
    24    19    20    1
    25    19    21    1
    26    19    22    1
    27    23    24    1
    28    25    26    1
    29    25    27    1
    30    27    28    1
    31    27    29    1
    32    27    30    1
    33    31    32    1
    34    33    37    2
    35    33    38    1
    36    34    35    1
    37    34    36    1
    38    34    38    1
    39    34    39    1
    40    39    40    1
    41    39    41    1
    42    39    42    1
@<TRIPOS>SUBSTRUCTURE
     1 1           1 GROUP             0 ****  ****    0  
@<TRIPOS>MOLECULE
Molecule Name_00158
    42    42     1     0     0
SMALL
NO_CHARGES
****
Generated from the CSD

@<TRIPOS>ATOM
     1 C1       3.4674  -0.2419  -0.1667   C.ar      1 1      0.0000
     2 C2       2.9718  -0.9668   0.8942   C.ar      1 1      0.0000
     3 C3       1.6036  -0.9945   1.0946   C.ar      1 1      0.0000
     4 C4       0.7335  -0.3088   0.2544   C.ar      1 1      0.0000
     5 C5       1.2767   0.4075  -0.8063   C.ar      1 1      0.0000
     6 C6       2.6416   0.4488  -1.0255   C.ar      1 1      0.0000
     7 H7       3.6402  -1.5048   1.5583   H         1 1      0.0000
     8 H8       1.2061  -1.5656   1.9265   H         1 1      0.0000
     9 H9       0.6193   0.9471  -1.4800   H         1 1      0.0000
    10 H10      3.0529   1.0130  -1.8561   H         1 1      0.0000
    11 N11      4.9180  -0.2044  -0.3885   N.pl3     1 1      0.0000
    12 O12      5.3418   0.4428  -1.3334   O.2       1 1      0.0000
    13 O13      5.6368  -0.8220   0.3815   O.2       1 1      0.0000
    14 CL3     -0.7776  -0.3351   0.4889   C.3       1 1      0.0000
    15 CL1     -1.5216  -0.8550  -0.7739   C.3       1 1      0.0000
    16 H16     -1.3092  -0.1778  -1.6100   H         1 1      0.0000
    17 H17     -1.1028  -1.8326  -1.0427   H         1 1      0.0000
    18 CL      -3.0476  -1.0072  -0.6467   C.3       1 1      0.0000
    19 CL2     -3.6115  -1.4588  -1.9815   C.3       1 1      0.0000
    20 H20     -4.6914  -1.5780  -1.9235   H         1 1      0.0000
    21 H21     -3.3923  -0.7302  -2.7592   H         1 1      0.0000
    22 H22     -3.1808  -2.4124  -2.2794   H         1 1      0.0000
    23 OL2     -1.0294  -1.1742   1.6092   O.3       1 1      0.0000
    24 H24     -1.9986  -1.1776   1.8059   H         1 1      0.0000
    25 N25     -3.3723  -1.9973   0.3464   N.3       1 1      0.0000
    26 H26     -3.9439  -1.5353   1.0536   H         1 1      0.0000
    27 C27     -4.1166  -3.1742  -0.1054   C.3       1 1      0.0000
    28 H28     -3.5609  -3.7114  -0.8711   H         1 1      0.0000
    29 H29     -4.2990  -3.8563   0.7224   H         1 1      0.0000
    30 H30     -5.0781  -2.8850  -0.5244   H         1 1      0.0000
    31 OL1     -3.6258   0.2583  -0.3500   O.3       1 1      0.0000
    32 H32     -4.6088   0.1654  -0.2935   H         1 1      0.0000
    33 CL4     -1.1609   1.1204   0.8233   C.2       1 1      0.0000
    34 C34     -1.3190   3.3314  -0.0208   C.3       1 1      0.0000
    35 H35     -1.5644   3.8020  -0.9809   H         1 1      0.0000
    36 H36     -2.1956   3.4272   0.6317   H         1 1      0.0000
    37 OL3     -1.5647   1.4697   1.8982   O.2       1 1      0.0000
    38 OL4     -0.9882   1.9250  -0.2182   O.3       1 1      0.0000
    39 C39     -0.1491   3.9993   0.5924   C.3       1 1      0.0000
    40 H40      0.7231   3.9187  -0.0530   H         1 1      0.0000
    41 H41     -0.3513   5.0554   0.7587   H         1 1      0.0000
    42 H42      0.0953   3.5460   1.5507   H         1 1      0.0000
@<TRIPOS>BOND
     1     1     2   ar
     2     1     6   ar
     3     1    11    1
     4     2     3   ar
     5     2     7    1
     6     3     4   ar
     7     3     8    1
     8     4     5   ar
     9     4    14    1
    10     5     6   ar
    11     5     9    1
    12     6    10    1
    13    11    12    2
    14    11    13    2
    15    14    15    1
    16    14    23    1
    17    14    33    1
    18    15    16    1
    19    15    17    1
    20    15    18    1
    21    18    19    1
    22    18    25    1
    23    18    31    1
    24    19    20    1
    25    19    21    1
    26    19    22    1
    27    23    24    1
    28    25    26    1
    29    25    27    1
    30    27    28    1
    31    27    29    1
    32    27    30    1
    33    31    32    1
    34    33    37    2
    35    33    38    1
    36    34    35    1
    37    34    36    1
    38    34    38    1
    39    34    39    1
    40    39    40    1
    41    39    41    1
    42    39    42    1
@<TRIPOS>SUBSTRUCTURE
     1 1           1 GROUP             0 ****  ****    0  
@<TRIPOS>MOLECULE
Molecule Name_00159
    42    42     1     0     0
SMALL
NO_CHARGES
****
Generated from the CSD

@<TRIPOS>ATOM
     1 C1       3.6524  -0.4014  -0.1733   C.ar      1 1      0.0000
     2 C2       3.1441   0.0205   1.0351   C.ar      1 1      0.0000
     3 C3       1.7723   0.0214   1.2115   C.ar      1 1      0.0000
     4 C4       0.9107  -0.3891   0.2003   C.ar      1 1      0.0000
     5 C5       1.4670  -0.8105  -1.0023   C.ar      1 1      0.0000
     6 C6       2.8358  -0.8197  -1.2003   C.ar      1 1      0.0000
     7 H7       3.8055   0.3451   1.8316   H         1 1      0.0000
     8 H8       1.3651   0.3498   2.1615   H         1 1      0.0000
     9 H9       0.8172  -1.1409  -1.8057   H         1 1      0.0000
    10 H10      3.2571  -1.1494  -2.1443   H         1 1      0.0000
    11 N11      5.1067  -0.4055  -0.3723   N.pl3     1 1      0.0000
    12 O12      5.8001   0.2163   0.4176   O.2       1 1      0.0000
    13 O13      5.5590  -1.0304  -1.3189   O.2       1 1      0.0000
    14 CL3     -0.6056  -0.3750   0.3990   C.3       1 1      0.0000
    15 CL1     -1.3401  -0.5991  -0.9533   C.3       1 1      0.0000
    16 H16     -1.0728   0.2156  -1.6370   H         1 1      0.0000
    17 H17     -0.9623  -1.5265  -1.4013   H         1 1      0.0000
    18 CL      -2.8746  -0.6923  -0.8839   C.3       1 1      0.0000
    19 CL2     -3.4240  -0.8439  -2.2905   C.3       1 1      0.0000
    20 H20     -4.5114  -0.8763  -2.2784   H         1 1      0.0000
    21 H21     -3.1168  -0.0088  -2.9166   H         1 1      0.0000
    22 H22     -3.0626  -1.7621  -2.7489   H         1 1      0.0000
    23 OL2     -0.9318  -1.3987   1.3307   O.3       1 1      0.0000
    24 H24     -1.4560  -1.0113   2.0745   H         1 1      0.0000
    25 N25     -3.2733  -1.8387  -0.1102   N.3       1 1      0.0000
    26 H26     -2.8733  -1.7249   0.8211   H         1 1      0.0000
    27 C27     -4.7104  -2.0574   0.0636   C.3       1 1      0.0000
    28 H28     -5.1974  -2.2034  -0.8983   H         1 1      0.0000
    29 H29     -4.8953  -2.9386   0.6744   H         1 1      0.0000
    30 H30     -5.1742  -1.2030   0.5521   H         1 1      0.0000
    31 OL1     -3.3982   0.5196  -0.3539   O.3       1 1      0.0000
    32 H32     -4.3863   0.4785  -0.3539   H         1 1      0.0000
    33 CL4     -0.9221   1.0079   1.0026   C.2       1 1      0.0000
    34 C34     -1.4544   3.2668   0.5123   C.3       1 1      0.0000
    35 H35     -0.8714   3.5101   1.4091   H         1 1      0.0000
    36 H36     -1.1928   3.9965  -0.2640   H         1 1      0.0000
    37 OL3     -0.9600   1.2237   2.1826   O.2       1 1      0.0000
    38 OL4     -1.1439   1.9158   0.0599   O.3       1 1      0.0000
    39 C39     -2.9027   3.3329   0.8097   C.3       1 1      0.0000
    40 H40     -3.1698   2.6197   1.5866   H         1 1      0.0000
    41 H41     -3.1811   4.3273   1.1522   H         1 1      0.0000
    42 H42     -3.4895   3.1034  -0.0773   H         1 1      0.0000
@<TRIPOS>BOND
     1     1     2   ar
     2     1     6   ar
     3     1    11    1
     4     2     3   ar
     5     2     7    1
     6     3     4   ar
     7     3     8    1
     8     4     5   ar
     9     4    14    1
    10     5     6   ar
    11     5     9    1
    12     6    10    1
    13    11    12    2
    14    11    13    2
    15    14    15    1
    16    14    23    1
    17    14    33    1
    18    15    16    1
    19    15    17    1
    20    15    18    1
    21    18    19    1
    22    18    25    1
    23    18    31    1
    24    19    20    1
    25    19    21    1
    26    19    22    1
    27    23    24    1
    28    25    26    1
    29    25    27    1
    30    27    28    1
    31    27    29    1
    32    27    30    1
    33    31    32    1
    34    33    37    2
    35    33    38    1
    36    34    35    1
    37    34    36    1
    38    34    38    1
    39    34    39    1
    40    39    40    1
    41    39    41    1
    42    39    42    1
@<TRIPOS>SUBSTRUCTURE
     1 1           1 GROUP             0 ****  ****    0  
@<TRIPOS>MOLECULE
Molecule Name_00160
    42    42     1     0     0
SMALL
NO_CHARGES
****
Generated from the CSD

@<TRIPOS>ATOM
     1 C1       3.5493  -0.4931  -0.1699   C.ar      1 1      0.0000
     2 C2       3.0720  -0.0190   1.0318   C.ar      1 1      0.0000
     3 C3       1.7035   0.0410   1.2224   C.ar      1 1      0.0000
     4 C4       0.8148  -0.3620   0.2319   C.ar      1 1      0.0000
     5 C5       1.3402  -0.8374  -0.9645   C.ar      1 1      0.0000
     6 C6       2.7051  -0.9062  -1.1765   C.ar      1 1      0.0000
     7 H7       3.7548   0.3004   1.8122   H         1 1      0.0000
     8 H8       1.3205   0.4107   2.1674   H         1 1      0.0000
     9 H9       0.6686  -1.1632  -1.7517   H         1 1      0.0000
    10 H10      3.1022  -1.2776  -2.1155   H         1 1      0.0000
    11 N11      5.0000  -0.5602  -0.3839   N.pl3     1 1      0.0000
    12 O12      5.7264   0.0545   0.3813   O.2       1 1      0.0000
    13 O13      5.4163  -1.2279  -1.3178   O.2       1 1      0.0000
    14 CL3     -0.6974  -0.2825   0.4460   C.3       1 1      0.0000
    15 CL1     -1.4557  -0.5136  -0.8919   C.3       1 1      0.0000
    16 H16     -1.1645   0.2712  -1.6004   H         1 1      0.0000
    17 H17     -1.1199  -1.4669  -1.3183   H         1 1      0.0000
    18 CL      -2.9917  -0.5439  -0.8039   C.3       1 1      0.0000
    19 CL2     -3.5629  -0.7114  -2.2001   C.3       1 1      0.0000
    20 H20     -4.6501  -0.7413  -2.1710   H         1 1      0.0000
    21 H21     -3.2637   0.1154  -2.8409   H         1 1      0.0000
    22 H22     -3.2104  -1.6358  -2.6527   H         1 1      0.0000
    23 OL2     -1.0528  -1.2671   1.4087   O.3       1 1      0.0000
    24 H24     -2.0227  -1.2105   1.5940   H         1 1      0.0000
    25 N25     -3.4264  -1.6525   0.0049   N.3       1 1      0.0000
    26 H26     -4.4452  -1.6159   0.0398   H         1 1      0.0000
    27 C27     -3.0604  -2.9941  -0.4524   C.3       1 1      0.0000
    28 H28     -1.9791  -3.0998  -0.5114   H         1 1      0.0000
    29 H29     -3.4381  -3.7511   0.2316   H         1 1      0.0000
    30 H30     -3.4746  -3.1917  -1.4389   H         1 1      0.0000
    31 OL1     -3.4611   0.7016  -0.3018   O.3       1 1      0.0000
    32 H32     -4.4495   0.6914  -0.2692   H         1 1      0.0000
    33 CL4     -0.9523   1.1276   1.0149   C.2       1 1      0.0000
    34 C34     -1.4008   3.3918   0.4686   C.3       1 1      0.0000
    35 H35     -0.7984   3.6359   1.3523   H         1 1      0.0000
    36 H36     -1.1197   4.0894  -0.3300   H         1 1      0.0000
    37 OL3     -0.9680   1.3764   2.1889   O.2       1 1      0.0000
    38 OL4     -1.1490   2.0179   0.0501   O.3       1 1      0.0000
    39 C39     -2.8419   3.5233   0.7792   C.3       1 1      0.0000
    40 H40     -3.1279   2.8424   1.5781   H         1 1      0.0000
    41 H41     -3.0770   4.5368   1.0973   H         1 1      0.0000
    42 H42     -3.4474   3.2934  -0.0950   H         1 1      0.0000
@<TRIPOS>BOND
     1     1     2   ar
     2     1     6   ar
     3     1    11    1
     4     2     3   ar
     5     2     7    1
     6     3     4   ar
     7     3     8    1
     8     4     5   ar
     9     4    14    1
    10     5     6   ar
    11     5     9    1
    12     6    10    1
    13    11    12    2
    14    11    13    2
    15    14    15    1
    16    14    23    1
    17    14    33    1
    18    15    16    1
    19    15    17    1
    20    15    18    1
    21    18    19    1
    22    18    25    1
    23    18    31    1
    24    19    20    1
    25    19    21    1
    26    19    22    1
    27    23    24    1
    28    25    26    1
    29    25    27    1
    30    27    28    1
    31    27    29    1
    32    27    30    1
    33    31    32    1
    34    33    37    2
    35    33    38    1
    36    34    35    1
    37    34    36    1
    38    34    38    1
    39    34    39    1
    40    39    40    1
    41    39    41    1
    42    39    42    1
@<TRIPOS>SUBSTRUCTURE
     1 1           1 GROUP             0 ****  ****    0  
@<TRIPOS>MOLECULE
Molecule Name_00161
    42    42     1     0     0
SMALL
NO_CHARGES
****
Generated from the CSD

@<TRIPOS>ATOM
     1 C1       2.7881  -0.5874  -0.3987   C.ar      1 1      0.0000
     2 C2       2.2005  -1.0682   0.7502   C.ar      1 1      0.0000
     3 C3       0.8895  -0.7188   1.0186   C.ar      1 1      0.0000
     4 C4       0.1669   0.1012   0.1590   C.ar      1 1      0.0000
     5 C5       0.7982   0.5612  -0.9913   C.ar      1 1      0.0000
     6 C6       2.1083   0.2242  -1.2794   C.ar      1 1      0.0000
     7 H7       2.7540  -1.7074   1.4302   H         1 1      0.0000
     8 H8       0.4193  -1.0960   1.9202   H         1 1      0.0000
     9 H9       0.2551   1.1982  -1.6814   H         1 1      0.0000
    10 H10      2.5899   0.5912  -2.1798   H         1 1      0.0000
    11 N11      4.1795  -0.9508  -0.6933   N.pl3     1 1      0.0000
    12 O12      4.6864  -0.5165  -1.7159   O.2       1 1      0.0000
    13 O13      4.7687  -1.6713   0.0973   O.2       1 1      0.0000
    14 CL3     -1.2790   0.4922   0.4680   C.3       1 1      0.0000
    15 CL1     -2.2451  -0.0748  -0.6107   C.3       1 1      0.0000
    16 H16     -3.2682   0.2310  -0.3610   H         1 1      0.0000
    17 H17     -1.9999   0.3921  -1.5727   H         1 1      0.0000
    18 CL      -2.2265  -1.6016  -0.8019   C.3       1 1      0.0000
    19 CL2     -1.2510  -1.9483  -1.9117   C.3       1 1      0.0000
    20 H20     -1.3357  -2.9979  -2.1857   H         1 1      0.0000
    21 H21     -1.4472  -1.3496  -2.7986   H         1 1      0.0000
    22 H22     -0.2264  -1.7619  -1.5967   H         1 1      0.0000
    23 OL2     -1.6011  -0.0157   1.7567   O.3       1 1      0.0000
    24 H24     -2.5208   0.2573   1.9971   H         1 1      0.0000
    25 N25     -1.7958  -2.2537   0.4069   N.3       1 1      0.0000
    26 H26     -2.4521  -1.9869   1.1408   H         1 1      0.0000
    27 C27     -1.7411  -3.7165   0.3911   C.3       1 1      0.0000
    28 H28     -1.0533  -4.0684  -0.3749   H         1 1      0.0000
    29 H29     -1.4037  -4.1002   1.3517   H         1 1      0.0000
    30 H30     -2.7229  -4.1370   0.1841   H         1 1      0.0000
    31 OL1     -3.5139  -2.0415  -1.2180   O.3       1 1      0.0000
    32 H32     -3.4873  -3.0140  -1.3958   H         1 1      0.0000
    33 CL4     -1.2853   2.0338   0.4919   C.2       1 1      0.0000
    34 C34     -1.0819   3.9570   1.8653   C.3       1 1      0.0000
    35 H35     -1.8131   4.4143   1.1874   H         1 1      0.0000
    36 H36     -1.3561   4.2368   2.8899   H         1 1      0.0000
    37 OL3     -1.4439   2.7118  -0.4857   O.2       1 1      0.0000
    38 OL4     -1.0954   2.5064   1.7178   O.3       1 1      0.0000
    39 C39      0.2809   4.4406   1.5500   C.3       1 1      0.0000
    40 H40      0.5577   4.1769   0.5314   H         1 1      0.0000
    41 H41      0.3383   5.5228   1.6473   H         1 1      0.0000
    42 H42      1.0121   4.0004   2.2247   H         1 1      0.0000
@<TRIPOS>BOND
     1     1     2   ar
     2     1     6   ar
     3     1    11    1
     4     2     3   ar
     5     2     7    1
     6     3     4   ar
     7     3     8    1
     8     4     5   ar
     9     4    14    1
    10     5     6   ar
    11     5     9    1
    12     6    10    1
    13    11    12    2
    14    11    13    2
    15    14    15    1
    16    14    23    1
    17    14    33    1
    18    15    16    1
    19    15    17    1
    20    15    18    1
    21    18    19    1
    22    18    25    1
    23    18    31    1
    24    19    20    1
    25    19    21    1
    26    19    22    1
    27    23    24    1
    28    25    26    1
    29    25    27    1
    30    27    28    1
    31    27    29    1
    32    27    30    1
    33    31    32    1
    34    33    37    2
    35    33    38    1
    36    34    35    1
    37    34    36    1
    38    34    38    1
    39    34    39    1
    40    39    40    1
    41    39    41    1
    42    39    42    1
@<TRIPOS>SUBSTRUCTURE
     1 1           1 GROUP             0 ****  ****    0  
@<TRIPOS>MOLECULE
Molecule Name_00162
    42    42     1     0     0
SMALL
NO_CHARGES
****
Generated from the CSD

@<TRIPOS>ATOM
     1 C1       2.8826  -0.7516  -0.3651   C.ar      1 1      0.0000
     2 C2       2.2517  -1.1789   0.7821   C.ar      1 1      0.0000
     3 C3       0.9588  -0.7516   1.0242   C.ar      1 1      0.0000
     4 C4       0.2966   0.0932   0.1404   C.ar      1 1      0.0000
     5 C5       0.9698   0.4973  -1.0072   C.ar      1 1      0.0000
     6 C6       2.2628   0.0821  -1.2693   C.ar      1 1      0.0000
     7 H7       2.7581  -1.8367   1.4808   H         1 1      0.0000
     8 H8       0.4549  -1.0863   1.9243   H         1 1      0.0000
     9 H9       0.4739   1.1521  -1.7158   H         1 1      0.0000
    10 H10      2.7776   0.4060  -2.1678   H         1 1      0.0000
    11 N11      4.2553  -1.1978  -0.6320   N.pl3     1 1      0.0000
    12 O12      4.8009  -0.8102  -1.6534   O.2       1 1      0.0000
    13 O13      4.7910  -1.9369   0.1791   O.2       1 1      0.0000
    14 CL3     -1.1292   0.5703   0.4204   C.3       1 1      0.0000
    15 CL1     -2.1098   0.0406  -0.6641   C.3       1 1      0.0000
    16 H16     -3.1176   0.4077  -0.4353   H         1 1      0.0000
    17 H17     -1.8245   0.4765  -1.6294   H         1 1      0.0000
    18 CL      -2.1751  -1.4879  -0.8303   C.3       1 1      0.0000
    19 CL2     -1.2046  -1.9079  -1.9190   C.3       1 1      0.0000
    20 H20     -1.3446  -2.9554  -2.1774   H         1 1      0.0000
    21 H21     -1.3534  -1.3141  -2.8184   H         1 1      0.0000
    22 H22     -0.1758  -1.7742  -1.5911   H         1 1      0.0000
    23 OL2     -1.4984   0.1033   1.7119   O.3       1 1      0.0000
    24 H24     -2.4046   0.4317   1.9335   H         1 1      0.0000
    25 N25     -1.7998  -2.1427   0.3954   N.3       1 1      0.0000
    26 H26     -2.4506  -1.8269   1.1146   H         1 1      0.0000
    27 C27     -1.8278  -3.6063   0.4040   C.3       1 1      0.0000
    28 H28     -1.1499  -4.0094  -0.3454   H         1 1      0.0000
    29 H29     -1.5269  -3.9921   1.3758   H         1 1      0.0000
    30 H30     -2.8288  -3.9742   0.1884   H         1 1      0.0000
    31 OL1     -3.4790  -1.8615  -1.2594   O.3       1 1      0.0000
    32 H32     -3.5050  -2.8368  -1.4211   H         1 1      0.0000
    33 CL4     -1.0485   2.1100   0.4194   C.2       1 1      0.0000
    34 C34     -0.7566   4.0417   1.7647   C.3       1 1      0.0000
    35 H35     -0.1822   4.3095   2.6601   H         1 1      0.0000
    36 H36     -0.2370   4.4644   0.8960   H         1 1      0.0000
    37 OL3     -1.1540   2.7792  -0.5713   O.2       1 1      0.0000
    38 OL4     -0.8501   2.5918   1.6403   O.3       1 1      0.0000
    39 C39     -2.1296   4.5869   1.8553   C.3       1 1      0.0000
    40 H40     -2.6494   4.1812   2.7207   H         1 1      0.0000
    41 H41     -2.1087   5.6706   1.9498   H         1 1      0.0000
    42 H42     -2.7039   4.3352   0.9662   H         1 1      0.0000
@<TRIPOS>BOND
     1     1     2   ar
     2     1     6   ar
     3     1    11    1
     4     2     3   ar
     5     2     7    1
     6     3     4   ar
     7     3     8    1
     8     4     5   ar
     9     4    14    1
    10     5     6   ar
    11     5     9    1
    12     6    10    1
    13    11    12    2
    14    11    13    2
    15    14    15    1
    16    14    23    1
    17    14    33    1
    18    15    16    1
    19    15    17    1
    20    15    18    1
    21    18    19    1
    22    18    25    1
    23    18    31    1
    24    19    20    1
    25    19    21    1
    26    19    22    1
    27    23    24    1
    28    25    26    1
    29    25    27    1
    30    27    28    1
    31    27    29    1
    32    27    30    1
    33    31    32    1
    34    33    37    2
    35    33    38    1
    36    34    35    1
    37    34    36    1
    38    34    38    1
    39    34    39    1
    40    39    40    1
    41    39    41    1
    42    39    42    1
@<TRIPOS>SUBSTRUCTURE
     1 1           1 GROUP             0 ****  ****    0  
@<TRIPOS>MOLECULE
Molecule Name_00163
    42    42     1     0     0
SMALL
NO_CHARGES
****
Generated from the CSD

@<TRIPOS>ATOM
     1 C1       2.7771  -0.6040  -0.2725   C.ar      1 1      0.0000
     2 C2       2.1552  -1.0429   0.8751   C.ar      1 1      0.0000
     3 C3       0.8333  -0.6949   1.0855   C.ar      1 1      0.0000
     4 C4       0.1334   0.0827   0.1696   C.ar      1 1      0.0000
     5 C5       0.7992   0.5012  -0.9772   C.ar      1 1      0.0000
     6 C6       2.1207   0.1648  -1.2078   C.ar      1 1      0.0000
     7 H7       2.6907  -1.6488   1.5986   H         1 1      0.0000
     8 H8       0.3363  -1.0394   1.9858   H         1 1      0.0000
     9 H9       0.2744   1.1045  -1.7104   H         1 1      0.0000
    10 H10      2.6292   0.4992  -2.1060   H         1 1      0.0000
    11 N11      4.1804  -0.9662  -0.5058   N.pl3     1 1      0.0000
    12 O12      4.7177  -0.5693  -1.5281   O.2       1 1      0.0000
    13 O13      4.7485  -1.6484   0.3327   O.2       1 1      0.0000
    14 CL3     -1.3250   0.4726   0.4143   C.3       1 1      0.0000
    15 CL1     -2.2496  -0.1435  -0.6738   C.3       1 1      0.0000
    16 H16     -3.2439   0.3111  -0.5879   H         1 1      0.0000
    17 H17     -1.8564   0.1364  -1.6590   H         1 1      0.0000
    18 CL      -2.4097  -1.6736  -0.6401   C.3       1 1      0.0000
    19 CL2     -3.5236  -2.0744  -1.5899   C.3       1 1      0.0000
    20 H20     -3.6694  -3.1525  -1.5802   H         1 1      0.0000
    21 H21     -4.4618  -1.6029  -1.3048   H         1 1      0.0000
    22 H22     -3.2887  -1.7733  -2.6087   H         1 1      0.0000
    23 OL2     -1.6871   0.0115   1.7100   O.3       1 1      0.0000
    24 H24     -2.6164   0.2854   1.9085   H         1 1      0.0000
    25 N25     -1.1929  -2.3151  -1.0643   N.3       1 1      0.0000
    26 H26     -0.5233  -1.5756  -1.2768   H         1 1      0.0000
    27 C27     -0.5476  -3.2169  -0.1086   C.3       1 1      0.0000
    28 H28     -1.0522  -4.1806  -0.0864   H         1 1      0.0000
    29 H29      0.4927  -3.3852  -0.3790   H         1 1      0.0000
    30 H30     -0.5734  -2.7978   0.8951   H         1 1      0.0000
    31 OL1     -2.8015  -2.0792   0.6660   O.3       1 1      0.0000
    32 H32     -3.1132  -3.0174   0.6392   H         1 1      0.0000
    33 CL4     -1.3436   2.0139   0.3788   C.2       1 1      0.0000
    34 C34     -0.8575   3.9919   1.5944   C.3       1 1      0.0000
    35 H35     -1.7281   4.4194   1.0819   H         1 1      0.0000
    36 H36     -0.8966   4.3125   2.6428   H         1 1      0.0000
    37 OL3     -1.7265   2.6511  -0.5634   O.2       1 1      0.0000
    38 OL4     -0.8873   2.5364   1.5106   O.3       1 1      0.0000
    39 C39      0.3933   4.4655   0.9606   C.3       1 1      0.0000
    40 H40      0.4360   4.1612  -0.0831   H         1 1      0.0000
    41 H41      0.4587   5.5508   1.0001   H         1 1      0.0000
    42 H42      1.2629   4.0548   1.4693   H         1 1      0.0000
@<TRIPOS>BOND
     1     1     2   ar
     2     1     6   ar
     3     1    11    1
     4     2     3   ar
     5     2     7    1
     6     3     4   ar
     7     3     8    1
     8     4     5   ar
     9     4    14    1
    10     5     6   ar
    11     5     9    1
    12     6    10    1
    13    11    12    2
    14    11    13    2
    15    14    15    1
    16    14    23    1
    17    14    33    1
    18    15    16    1
    19    15    17    1
    20    15    18    1
    21    18    19    1
    22    18    25    1
    23    18    31    1
    24    19    20    1
    25    19    21    1
    26    19    22    1
    27    23    24    1
    28    25    26    1
    29    25    27    1
    30    27    28    1
    31    27    29    1
    32    27    30    1
    33    31    32    1
    34    33    37    2
    35    33    38    1
    36    34    35    1
    37    34    36    1
    38    34    38    1
    39    34    39    1
    40    39    40    1
    41    39    41    1
    42    39    42    1
@<TRIPOS>SUBSTRUCTURE
     1 1           1 GROUP             0 ****  ****    0  
@<TRIPOS>MOLECULE
Molecule Name_00164
    42    42     1     0     0
SMALL
NO_CHARGES
****
Generated from the CSD

@<TRIPOS>ATOM
     1 C1       2.8641  -0.7668  -0.2377   C.ar      1 1      0.0000
     2 C2       2.2023  -1.1100   0.9203   C.ar      1 1      0.0000
     3 C3       0.8978  -0.6824   1.0880   C.ar      1 1      0.0000
     4 C4       0.2543   0.0803   0.1197   C.ar      1 1      0.0000
     5 C5       0.9588   0.4008  -1.0355   C.ar      1 1      0.0000
     6 C6       2.2639  -0.0163  -1.2241   C.ar      1 1      0.0000
     7 H7       2.6937  -1.7032   1.6844   H         1 1      0.0000
     8 H8       0.3695  -0.9512   1.9962   H         1 1      0.0000
     9 H9       0.4781   0.9904  -1.8090   H         1 1      0.0000
    10 H10      2.8030   0.2421  -2.1295   H         1 1      0.0000
    11 N11      4.2494  -1.2142  -0.4261   N.pl3     1 1      0.0000
    12 O12      4.8226  -0.9017  -1.4581   O.2       1 1      0.0000
    13 O13      4.7676  -1.8790   0.4575   O.2       1 1      0.0000
    14 CL3     -1.1848   0.5588   0.3170   C.3       1 1      0.0000
    15 CL1     -2.1242  -0.0658  -0.7533   C.3       1 1      0.0000
    16 H16     -3.0941   0.4442  -0.7096   H         1 1      0.0000
    17 H17     -1.7018   0.1395  -1.7447   H         1 1      0.0000
    18 CL      -2.3662  -1.5814  -0.6413   C.3       1 1      0.0000
    19 CL2     -3.4853  -1.9739  -1.5884   C.3       1 1      0.0000
    20 H20     -3.6885  -3.0409  -1.5241   H         1 1      0.0000
    21 H21     -4.4012  -1.4392  -1.3457   H         1 1      0.0000
    22 H22     -3.2193  -1.7410  -2.6173   H         1 1      0.0000
    23 OL2     -1.5905   0.1878   1.6286   O.3       1 1      0.0000
    24 H24     -2.5068   0.5204   1.7956   H         1 1      0.0000
    25 N25     -1.1791  -2.3078  -1.0089   N.3       1 1      0.0000
    26 H26     -0.4678  -1.6170  -1.2483   H         1 1      0.0000
    27 C27     -0.5973  -3.1893   0.0048   C.3       1 1      0.0000
    28 H28     -1.1528  -4.1226   0.0690   H         1 1      0.0000
    29 H29      0.4365  -3.4262  -0.2376   H         1 1      0.0000
    30 H30     -0.6159  -2.7158   0.9842   H         1 1      0.0000
    31 OL1     -2.7988  -1.8948   0.6772   O.3       1 1      0.0000
    32 H32     -3.1596  -2.8155   0.6946   H         1 1      0.0000
    33 CL4     -1.1206   2.0947   0.1994   C.2       1 1      0.0000
    34 C34     -0.5483   4.1072   1.3170   C.3       1 1      0.0000
    35 H35      0.2121   4.4288   2.0393   H         1 1      0.0000
    36 H36     -0.2437   4.4703   0.3276   H         1 1      0.0000
    37 OL3     -1.4547   2.6994  -0.7820   O.2       1 1      0.0000
    38 OL4     -0.6543   2.6529   1.3099   O.3       1 1      0.0000
    39 C39     -1.8697   4.6648   1.6823   C.3       1 1      0.0000
    40 H40     -2.1755   4.3184   2.6674   H         1 1      0.0000
    41 H41     -1.8379   5.7522   1.7002   H         1 1      0.0000
    42 H42     -2.6288   4.3597   0.9651   H         1 1      0.0000
@<TRIPOS>BOND
     1     1     2   ar
     2     1     6   ar
     3     1    11    1
     4     2     3   ar
     5     2     7    1
     6     3     4   ar
     7     3     8    1
     8     4     5   ar
     9     4    14    1
    10     5     6   ar
    11     5     9    1
    12     6    10    1
    13    11    12    2
    14    11    13    2
    15    14    15    1
    16    14    23    1
    17    14    33    1
    18    15    16    1
    19    15    17    1
    20    15    18    1
    21    18    19    1
    22    18    25    1
    23    18    31    1
    24    19    20    1
    25    19    21    1
    26    19    22    1
    27    23    24    1
    28    25    26    1
    29    25    27    1
    30    27    28    1
    31    27    29    1
    32    27    30    1
    33    31    32    1
    34    33    37    2
    35    33    38    1
    36    34    35    1
    37    34    36    1
    38    34    38    1
    39    34    39    1
    40    39    40    1
    41    39    41    1
    42    39    42    1
@<TRIPOS>SUBSTRUCTURE
     1 1           1 GROUP             0 ****  ****    0  
@<TRIPOS>MOLECULE
Molecule Name_00165
    42    42     1     0     0
SMALL
NO_CHARGES
****
Generated from the CSD

@<TRIPOS>ATOM
     1 C1       3.6617  -0.4337  -0.2270   C.ar      1 1      0.0000
     2 C2       3.1425   0.3663   0.7664   C.ar      1 1      0.0000
     3 C3       1.7690   0.4253   0.9178   C.ar      1 1      0.0000
     4 C4       0.9165  -0.2990   0.0920   C.ar      1 1      0.0000
     5 C5       1.4837  -1.0967  -0.8956   C.ar      1 1      0.0000
     6 C6       2.8543  -1.1707  -1.0647   C.ar      1 1      0.0000
     7 H7       3.7967   0.9380   1.4163   H         1 1      0.0000
     8 H8       1.3531   1.0512   1.6999   H         1 1      0.0000
     9 H9       0.8410  -1.6761  -1.5500   H         1 1      0.0000
    10 H10      3.2842  -1.7957  -1.8404   H         1 1      0.0000
    11 N11      5.1180  -0.5032  -0.3978   N.pl3     1 1      0.0000
    12 O12      5.8265  -0.0814   0.5029   O.2       1 1      0.0000
    13 O13      5.5566  -0.9798  -1.4331   O.2       1 1      0.0000
    14 CL3     -0.6018  -0.2203   0.2585   C.3       1 1      0.0000
    15 CL1     -1.3232  -0.8711  -0.9557   C.3       1 1      0.0000
    16 H16     -1.0237  -0.3405  -1.8675   H         1 1      0.0000
    17 H17     -0.9653  -1.9031  -1.0567   H         1 1      0.0000
    18 CL      -2.8605  -0.9022  -0.8937   C.3       1 1      0.0000
    19 CL2     -3.3980  -1.4057  -2.2207   C.3       1 1      0.0000
    20 H20     -4.4860  -1.4103  -2.2195   H         1 1      0.0000
    21 H21     -3.0626  -0.7711  -3.0384   H         1 1      0.0000
    22 H22     -3.0550  -2.4196  -2.4160   H         1 1      0.0000
    23 OL2     -0.9417  -0.8856   1.4686   O.3       1 1      0.0000
    24 H24     -1.6674  -0.3907   1.9231   H         1 1      0.0000
    25 N25     -3.3030  -1.7925   0.1473   N.3       1 1      0.0000
    26 H26     -2.9201  -1.4405   1.0247   H         1 1      0.0000
    27 C27     -4.7482  -1.9314   0.3347   C.3       1 1      0.0000
    28 H28     -5.2186  -2.3183  -0.5668   H         1 1      0.0000
    29 H29     -4.9671  -2.6158   1.1517   H         1 1      0.0000
    30 H30     -5.2011  -0.9700   0.5674   H         1 1      0.0000
    31 OL1     -3.3531   0.4200  -0.7124   O.3       1 1      0.0000
    32 H32     -4.3420   0.4053  -0.7131   H         1 1      0.0000
    33 CL4     -0.9188   1.2839   0.3767   C.2       1 1      0.0000
    34 C34     -1.5146   3.0336   1.8633   C.3       1 1      0.0000
    35 H35     -1.2999   3.3014   2.9053   H         1 1      0.0000
    36 H36     -0.8992   3.6749   1.2203   H         1 1      0.0000
    37 OL3     -0.9111   2.0387  -0.5564   O.2       1 1      0.0000
    38 OL4     -1.1975   1.6300   1.6276   O.3       1 1      0.0000
    39 C39     -2.9501   3.2388   1.5674   C.3       1 1      0.0000
    40 H40     -3.5691   2.6143   2.2081   H         1 1      0.0000
    41 H41     -3.2330   4.2767   1.7302   H         1 1      0.0000
    42 H42     -3.1705   2.9858   0.5324   H         1 1      0.0000
@<TRIPOS>BOND
     1     1     2   ar
     2     1     6   ar
     3     1    11    1
     4     2     3   ar
     5     2     7    1
     6     3     4   ar
     7     3     8    1
     8     4     5   ar
     9     4    14    1
    10     5     6   ar
    11     5     9    1
    12     6    10    1
    13    11    12    2
    14    11    13    2
    15    14    15    1
    16    14    23    1
    17    14    33    1
    18    15    16    1
    19    15    17    1
    20    15    18    1
    21    18    19    1
    22    18    25    1
    23    18    31    1
    24    19    20    1
    25    19    21    1
    26    19    22    1
    27    23    24    1
    28    25    26    1
    29    25    27    1
    30    27    28    1
    31    27    29    1
    32    27    30    1
    33    31    32    1
    34    33    37    2
    35    33    38    1
    36    34    35    1
    37    34    36    1
    38    34    38    1
    39    34    39    1
    40    39    40    1
    41    39    41    1
    42    39    42    1
@<TRIPOS>SUBSTRUCTURE
     1 1           1 GROUP             0 ****  ****    0  
@<TRIPOS>MOLECULE
Molecule Name_00166
    42    42     1     0     0
SMALL
NO_CHARGES
****
Generated from the CSD

@<TRIPOS>ATOM
     1 C1       3.5680  -0.5224  -0.2281   C.ar      1 1      0.0000
     2 C2       3.0832   0.2900   0.7728   C.ar      1 1      0.0000
     3 C3       1.7135   0.4022   0.9282   C.ar      1 1      0.0000
     4 C4       0.8310  -0.2814   0.0992   C.ar      1 1      0.0000
     5 C5       1.3638  -1.0933  -0.8959   C.ar      1 1      0.0000
     6 C6       2.7301  -1.2203  -1.0692   C.ar      1 1      0.0000
     7 H7       3.7611   0.8302   1.4253   H         1 1      0.0000
     8 H8       1.3246   1.0380   1.7161   H         1 1      0.0000
     9 H9       0.6972  -1.6418  -1.5530   H         1 1      0.0000
    10 H10      3.1331  -1.8559  -1.8508   H         1 1      0.0000
    11 N11      5.0200  -0.6482  -0.4032   N.pl3     1 1      0.0000
    12 O12      5.7468  -0.2618   0.4988   O.2       1 1      0.0000
    13 O13      5.4369  -1.1338  -1.4432   O.2       1 1      0.0000
    14 CL3     -0.6825  -0.1439   0.2703   C.3       1 1      0.0000
    15 CL1     -1.4318  -0.7486  -0.9509   C.3       1 1      0.0000
    16 H16     -1.0974  -0.2321  -1.8587   H         1 1      0.0000
    17 H17     -1.1316  -1.7987  -1.0541   H         1 1      0.0000
    18 CL      -2.9688  -0.6938  -0.8982   C.3       1 1      0.0000
    19 CL2     -3.5278  -1.2762  -2.1833   C.3       1 1      0.0000
    20 H20     -4.6156  -1.2563  -2.1747   H         1 1      0.0000
    21 H21     -3.1853  -0.7078  -3.0455   H         1 1      0.0000
    22 H22     -3.2088  -2.3087  -2.3096   H         1 1      0.0000
    23 OL2     -1.0469  -0.8113   1.4721   O.3       1 1      0.0000
    24 H24     -2.0179  -0.7040   1.6262   H         1 1      0.0000
    25 N25     -3.4611  -1.4706   0.2091   N.3       1 1      0.0000
    26 H26     -4.4777  -1.3881   0.2038   H         1 1      0.0000
    27 C27     -3.1465  -2.9004   0.2113   C.3       1 1      0.0000
    28 H28     -2.0700  -3.0584   0.2174   H         1 1      0.0000
    29 H29     -3.5653  -3.3860   1.0902   H         1 1      0.0000
    30 H30     -3.5555  -3.3866  -0.6718   H         1 1      0.0000
    31 OL1     -3.3913   0.6629  -0.8301   O.3       1 1      0.0000
    32 H32     -4.3796   0.6994  -0.8219   H         1 1      0.0000
    33 CL4     -0.9384   1.3702   0.4094   C.2       1 1      0.0000
    34 C34     -1.5342   3.1110   1.9063   C.3       1 1      0.0000
    35 H35     -1.3636   3.3450   2.9644   H         1 1      0.0000
    36 H36     -0.8578   3.7380   1.3125   H         1 1      0.0000
    37 OL3     -0.8478   2.1448  -0.5029   O.2       1 1      0.0000
    38 OL4     -1.2675   1.7001   1.6523   O.3       1 1      0.0000
    39 C39     -2.9416   3.3880   1.5413   C.3       1 1      0.0000
    40 H40     -3.6207   2.7780   2.1332   H         1 1      0.0000
    41 H41     -3.1864   4.4337   1.7151   H         1 1      0.0000
    42 H42     -3.1177   3.1688   0.4903   H         1 1      0.0000
@<TRIPOS>BOND
     1     1     2   ar
     2     1     6   ar
     3     1    11    1
     4     2     3   ar
     5     2     7    1
     6     3     4   ar
     7     3     8    1
     8     4     5   ar
     9     4    14    1
    10     5     6   ar
    11     5     9    1
    12     6    10    1
    13    11    12    2
    14    11    13    2
    15    14    15    1
    16    14    23    1
    17    14    33    1
    18    15    16    1
    19    15    17    1
    20    15    18    1
    21    18    19    1
    22    18    25    1
    23    18    31    1
    24    19    20    1
    25    19    21    1
    26    19    22    1
    27    23    24    1
    28    25    26    1
    29    25    27    1
    30    27    28    1
    31    27    29    1
    32    27    30    1
    33    31    32    1
    34    33    37    2
    35    33    38    1
    36    34    35    1
    37    34    36    1
    38    34    38    1
    39    34    39    1
    40    39    40    1
    41    39    41    1
    42    39    42    1
@<TRIPOS>SUBSTRUCTURE
     1 1           1 GROUP             0 ****  ****    0  
@<TRIPOS>MOLECULE
Molecule Name_00167
    42    42     1     0     0
SMALL
NO_CHARGES
****
Generated from the CSD

@<TRIPOS>ATOM
     1 C1       3.6807  -0.4331  -0.2346   C.ar      1 1      0.0000
     2 C2       3.1467   0.3524   0.7626   C.ar      1 1      0.0000
     3 C3       1.7739   0.3664   0.9298   C.ar      1 1      0.0000
     4 C4       0.9363  -0.3883   0.1159   C.ar      1 1      0.0000
     5 C5       1.5182  -1.1698  -0.8760   C.ar      1 1      0.0000
     6 C6       2.8886  -1.1989  -1.0609   C.ar      1 1      0.0000
     7 H7       3.7891   0.9474   1.4033   H         1 1      0.0000
     8 H8       1.3466   0.9805   1.7150   H         1 1      0.0000
     9 H9       0.8876  -1.7721  -1.5213   H         1 1      0.0000
    10 H10      3.3299  -1.8118  -1.8399   H         1 1      0.0000
    11 N11      5.1364  -0.4549  -0.4222   N.pl3     1 1      0.0000
    12 O12      5.8014   0.4187   0.1125   O.2       1 1      0.0000
    13 O13      5.6181  -1.3456  -1.1046   O.2       1 1      0.0000
    14 CL3     -0.5816  -0.3593   0.2999   C.3       1 1      0.0000
    15 CL1     -1.2954  -1.0309  -0.9076   C.3       1 1      0.0000
    16 H16     -1.0101  -0.4998  -1.8236   H         1 1      0.0000
    17 H17     -0.9179  -2.0564  -1.0043   H         1 1      0.0000
    18 CL      -2.8315  -1.0915  -0.8387   C.3       1 1      0.0000
    19 CL2     -3.2388  -2.0131   0.2963   C.3       1 1      0.0000
    20 H20     -4.0910  -2.6255   0.0090   H         1 1      0.0000
    21 H21     -2.4203  -2.6769   0.5667   H         1 1      0.0000
    22 H22     -3.5156  -1.4395   1.1784   H         1 1      0.0000
    23 OL2     -0.8859  -1.0377   1.5122   O.3       1 1      0.0000
    24 H24     -1.7765  -0.7522   1.8339   H         1 1      0.0000
    25 N25     -3.3746   0.2169  -0.5838   N.3       1 1      0.0000
    26 H26     -3.0681   0.8216  -1.3459   H         1 1      0.0000
    27 C27     -4.8321   0.3293  -0.5062   C.3       1 1      0.0000
    28 H28     -5.2251  -0.2955   0.2932   H         1 1      0.0000
    29 H29     -5.1298   1.3573  -0.3104   H         1 1      0.0000
    30 H30     -5.2934   0.0148  -1.4400   H         1 1      0.0000
    31 OL1     -3.3367  -1.6555  -2.0431   O.3       1 1      0.0000
    32 H32     -4.3202  -1.7381  -1.9801   H         1 1      0.0000
    33 CL4     -0.9460   1.1336   0.4251   C.2       1 1      0.0000
    34 C34     -1.6164   2.8520   1.9163   C.3       1 1      0.0000
    35 H35     -1.4252   3.1176   2.9634   H         1 1      0.0000
    36 H36     -1.0115   3.5170   1.2876   H         1 1      0.0000
    37 OL3     -0.9478   1.8959  -0.5019   O.2       1 1      0.0000
    38 OL4     -1.2533   1.4606   1.6744   O.3       1 1      0.0000
    39 C39     -3.0531   3.0159   1.6008   C.3       1 1      0.0000
    40 H40     -3.6620   2.3677   2.2275   H         1 1      0.0000
    41 H41     -3.3698   4.0434   1.7675   H         1 1      0.0000
    42 H42     -3.2506   2.7649   0.5608   H         1 1      0.0000
@<TRIPOS>BOND
     1     1     2   ar
     2     1     6   ar
     3     1    11    1
     4     2     3   ar
     5     2     7    1
     6     3     4   ar
     7     3     8    1
     8     4     5   ar
     9     4    14    1
    10     5     6   ar
    11     5     9    1
    12     6    10    1
    13    11    12    2
    14    11    13    2
    15    14    15    1
    16    14    23    1
    17    14    33    1
    18    15    16    1
    19    15    17    1
    20    15    18    1
    21    18    19    1
    22    18    25    1
    23    18    31    1
    24    19    20    1
    25    19    21    1
    26    19    22    1
    27    23    24    1
    28    25    26    1
    29    25    27    1
    30    27    28    1
    31    27    29    1
    32    27    30    1
    33    31    32    1
    34    33    37    2
    35    33    38    1
    36    34    35    1
    37    34    36    1
    38    34    38    1
    39    34    39    1
    40    39    40    1
    41    39    41    1
    42    39    42    1
@<TRIPOS>SUBSTRUCTURE
     1 1           1 GROUP             0 ****  ****    0  
@<TRIPOS>MOLECULE
Molecule Name_00168
    42    42     1     0     0
SMALL
NO_CHARGES
****
Generated from the CSD

@<TRIPOS>ATOM
     1 C1       2.9581  -0.7312  -0.3444   C.ar      1 1      0.0000
     2 C2       2.3492   0.3051  -1.0168   C.ar      1 1      0.0000
     3 C3       1.0565   0.6510  -0.6674   C.ar      1 1      0.0000
     4 C4       0.3712  -0.0239   0.3367   C.ar      1 1      0.0000
     5 C5       1.0253  -1.0613   0.9918   C.ar      1 1      0.0000
     6 C6       2.3177  -1.4240   0.6588   C.ar      1 1      0.0000
     7 H7       2.8723   0.8386  -1.8035   H         1 1      0.0000
     8 H8       0.5717   1.4679  -1.1908   H         1 1      0.0000
     9 H9       0.5149  -1.6007   1.7827   H         1 1      0.0000
    10 H10      2.8163  -2.2367   1.1768   H         1 1      0.0000
    11 N11      4.3296  -1.1080  -0.7075   N.pl3     1 1      0.0000
    12 O12      4.8557  -2.0288  -0.1021   O.2       1 1      0.0000
    13 O13      4.8839  -0.4840  -1.5989   O.2       1 1      0.0000
    14 CL3     -1.0621   0.3573   0.7100   C.3       1 1      0.0000
    15 CL1     -2.0076   0.2116  -0.5160   C.3       1 1      0.0000
    16 H16     -2.9789   0.6546  -0.2647   H         1 1      0.0000
    17 H17     -1.5936   0.8020  -1.3427   H         1 1      0.0000
    18 CL      -2.2435  -1.2219  -1.0234   C.3       1 1      0.0000
    19 CL2     -0.9652  -1.7371  -1.6591   C.3       1 1      0.0000
    20 H20     -1.1464  -2.6706  -2.1878   H         1 1      0.0000
    21 H21     -0.5705  -1.0154  -2.3711   H         1 1      0.0000
    22 H22     -0.2042  -1.9182  -0.9028   H         1 1      0.0000
    23 OL2     -1.4746  -0.4911   1.7742   O.3       1 1      0.0000
    24 H24     -2.3870  -0.2388   2.0609   H         1 1      0.0000
    25 N25     -2.5937  -2.0902   0.0699   N.3       1 1      0.0000
    26 H26     -3.5345  -2.4386  -0.1144   H         1 1      0.0000
    27 C27     -1.7394  -3.2579   0.2927   C.3       1 1      0.0000
    28 H28     -0.7437  -2.9528   0.6077   H         1 1      0.0000
    29 H29     -2.1575  -3.8998   1.0653   H         1 1      0.0000
    30 H30     -1.6419  -3.8440  -0.6187   H         1 1      0.0000
    31 OL1     -3.2426  -1.2064  -2.0360   O.3       1 1      0.0000
    32 H32     -3.3761  -2.1240  -2.3801   H         1 1      0.0000
    33 CL4     -0.9782   1.8165   1.2009   C.2       1 1      0.0000
    34 C34     -1.1354   4.0947   0.5598   C.3       1 1      0.0000
    35 H35     -0.3567   4.2721   1.3118   H         1 1      0.0000
    36 H36     -0.8862   4.6921  -0.3260   H         1 1      0.0000
    37 OL3     -0.7485   2.1213   2.3388   O.2       1 1      0.0000
    38 OL4     -1.1901   2.6791   0.2145   O.3       1 1      0.0000
    39 C39     -2.4589   4.4924   1.0896   C.3       1 1      0.0000
    40 H40     -2.7100   3.9123   1.9751   H         1 1      0.0000
    41 H41     -2.4648   5.5458   1.3616   H         1 1      0.0000
    42 H42     -3.2365   4.3300   0.3462   H         1 1      0.0000
@<TRIPOS>BOND
     1     1     2   ar
     2     1     6   ar
     3     1    11    1
     4     2     3   ar
     5     2     7    1
     6     3     4   ar
     7     3     8    1
     8     4     5   ar
     9     4    14    1
    10     5     6   ar
    11     5     9    1
    12     6    10    1
    13    11    12    2
    14    11    13    2
    15    14    15    1
    16    14    23    1
    17    14    33    1
    18    15    16    1
    19    15    17    1
    20    15    18    1
    21    18    19    1
    22    18    25    1
    23    18    31    1
    24    19    20    1
    25    19    21    1
    26    19    22    1
    27    23    24    1
    28    25    26    1
    29    25    27    1
    30    27    28    1
    31    27    29    1
    32    27    30    1
    33    31    32    1
    34    33    37    2
    35    33    38    1
    36    34    35    1
    37    34    36    1
    38    34    38    1
    39    34    39    1
    40    39    40    1
    41    39    41    1
    42    39    42    1
@<TRIPOS>SUBSTRUCTURE
     1 1           1 GROUP             0 ****  ****    0  
@<TRIPOS>MOLECULE
Molecule Name_00169
    42    42     1     0     0
SMALL
NO_CHARGES
****
Generated from the CSD

@<TRIPOS>ATOM
     1 C1       2.8646  -0.5721  -0.3689   C.ar      1 1      0.0000
     2 C2       2.1904   0.4436  -1.0096   C.ar      1 1      0.0000
     3 C3       0.8854   0.7094  -0.6365   C.ar      1 1      0.0000
     4 C4       0.2520  -0.0250   0.3599   C.ar      1 1      0.0000
     5 C5       0.9711  -1.0390   0.9827   C.ar      1 1      0.0000
     6 C6       2.2770  -1.3218   0.6257   C.ar      1 1      0.0000
     7 H7       2.6727   1.0229  -1.7900   H         1 1      0.0000
     8 H8       0.3493   1.5096  -1.1349   H         1 1      0.0000
     9 H9       0.5020  -1.6236   1.7671   H         1 1      0.0000
    10 H10      2.8266  -2.1170   1.1185   H         1 1      0.0000
    11 N11      4.2498  -0.8640  -0.7574   N.pl3     1 1      0.0000
    12 O12      4.8340  -1.7676  -0.1800   O.2       1 1      0.0000
    13 O13      4.7567  -0.1903  -1.6407   O.2       1 1      0.0000
    14 CL3     -1.1949   0.2676   0.7595   C.3       1 1      0.0000
    15 CL1     -2.1474   0.0973  -0.4580   C.3       1 1      0.0000
    16 H16     -3.1382   0.4800  -0.1846   H         1 1      0.0000
    17 H17     -1.7778   0.7282  -1.2758   H         1 1      0.0000
    18 CL      -2.3107  -1.3353  -0.9956   C.3       1 1      0.0000
    19 CL2     -1.0146  -1.7644  -1.6586   C.3       1 1      0.0000
    20 H20     -1.1511  -2.6943  -2.2066   H         1 1      0.0000
    21 H21     -0.6699  -1.0060  -2.3585   H         1 1      0.0000
    22 H22     -0.2346  -1.9199  -0.9161   H         1 1      0.0000
    23 OL2     -1.5457  -0.6261   1.8087   O.3       1 1      0.0000
    24 H24     -2.4666  -0.4313   2.1122   H         1 1      0.0000
    25 N25     -2.5977  -2.2460   0.0815   N.3       1 1      0.0000
    26 H26     -3.5202  -2.6419  -0.0994   H         1 1      0.0000
    27 C27     -1.6773  -3.3693   0.2667   C.3       1 1      0.0000
    28 H28     -0.6958  -3.0166   0.5764   H         1 1      0.0000
    29 H29     -2.0488  -4.0506   1.0292   H         1 1      0.0000
    30 H30     -1.5599  -3.9284  -0.6593   H         1 1      0.0000
    31 OL1     -3.3227  -1.3525  -1.9953   O.3       1 1      0.0000
    32 H32     -3.4099  -2.2681  -2.3589   H         1 1      0.0000
    33 CL4     -1.1851   1.7178   1.2831   C.2       1 1      0.0000
    34 C34     -1.4764   3.9977   0.6969   C.3       1 1      0.0000
    35 H35     -2.1079   4.5677   0.0043   H         1 1      0.0000
    36 H36     -1.8951   4.1152   1.7040   H         1 1      0.0000
    37 OL3     -0.9573   2.0092   2.4248   O.2       1 1      0.0000
    38 OL4     -1.4576   2.5893   0.3195   O.3       1 1      0.0000
    39 C39     -0.0866   4.5048   0.6579   C.3       1 1      0.0000
    40 H40      0.3336   4.4022  -0.3404   H         1 1      0.0000
    41 H41     -0.0520   5.5567   0.9336   H         1 1      0.0000
    42 H42      0.5453   3.9521   1.3500   H         1 1      0.0000
@<TRIPOS>BOND
     1     1     2   ar
     2     1     6   ar
     3     1    11    1
     4     2     3   ar
     5     2     7    1
     6     3     4   ar
     7     3     8    1
     8     4     5   ar
     9     4    14    1
    10     5     6   ar
    11     5     9    1
    12     6    10    1
    13    11    12    2
    14    11    13    2
    15    14    15    1
    16    14    23    1
    17    14    33    1
    18    15    16    1
    19    15    17    1
    20    15    18    1
    21    18    19    1
    22    18    25    1
    23    18    31    1
    24    19    20    1
    25    19    21    1
    26    19    22    1
    27    23    24    1
    28    25    26    1
    29    25    27    1
    30    27    28    1
    31    27    29    1
    32    27    30    1
    33    31    32    1
    34    33    37    2
    35    33    38    1
    36    34    35    1
    37    34    36    1
    38    34    38    1
    39    34    39    1
    40    39    40    1
    41    39    41    1
    42    39    42    1
@<TRIPOS>SUBSTRUCTURE
     1 1           1 GROUP             0 ****  ****    0  
@<TRIPOS>MOLECULE
Molecule Name_00170
    42    42     1     0     0
SMALL
NO_CHARGES
****
Generated from the CSD

@<TRIPOS>ATOM
     1 C1       3.4121  -0.2400  -0.2309   C.ar      1 1      0.0000
     2 C2       2.5491  -0.1052  -1.2957   C.ar      1 1      0.0000
     3 C3       1.1891  -0.1917  -1.0598   C.ar      1 1      0.0000
     4 C4       0.6872  -0.4121   0.2180   C.ar      1 1      0.0000
     5 C5       1.5941  -0.5387   1.2644   C.ar      1 1      0.0000
     6 C6       2.9581  -0.4555   1.0513   C.ar      1 1      0.0000
     7 H7       2.9280   0.0653  -2.2980   H         1 1      0.0000
     8 H8       0.5035  -0.0838  -1.8932   H         1 1      0.0000
     9 H9       1.2285  -0.7059   2.2720   H         1 1      0.0000
    10 H10      3.6553  -0.5577   1.8763   H         1 1      0.0000
    11 N11      4.8577  -0.1511  -0.4696   N.pl3     1 1      0.0000
    12 O12      5.6098  -0.2727   0.4848   O.2       1 1      0.0000
    13 O13      5.2445   0.0404  -1.6119   O.2       1 1      0.0000
    14 CL3     -0.8177  -0.5175   0.4694   C.3       1 1      0.0000
    15 CL1     -1.5392  -1.1379  -0.7605   C.3       1 1      0.0000
    16 H16     -1.4669  -0.4365  -1.6004   H         1 1      0.0000
    17 H17     -0.9976  -2.0449  -1.0565   H         1 1      0.0000
    18 CL      -3.0196  -1.5084  -0.5621   C.3       1 1      0.0000
    19 CL2     -3.1241  -2.5552   0.5319   C.3       1 1      0.0000
    20 H20     -3.9514  -3.2346   0.3379   H         1 1      0.0000
    21 H21     -2.2102  -3.1425   0.5923   H         1 1      0.0000
    22 H22     -3.2903  -2.0865   1.4996   H         1 1      0.0000
    23 OL2     -1.0100  -1.3178   1.6292   O.3       1 1      0.0000
    24 H24     -1.7477  -0.9414   2.1697   H         1 1      0.0000
    25 N25     -3.7775  -0.3515  -0.1631   N.3       1 1      0.0000
    26 H26     -3.3926  -0.0341   0.7265   H         1 1      0.0000
    27 C27     -3.7657   0.7973  -1.0704   C.3       1 1      0.0000
    28 H28     -4.3386   0.5839  -1.9704   H         1 1      0.0000
    29 H29     -4.2009   1.6717  -0.5910   H         1 1      0.0000
    30 H30     -2.7485   1.0443  -1.3668   H         1 1      0.0000
    31 OL1     -3.5246  -2.0934  -1.7565   O.3       1 1      0.0000
    32 H32     -4.4687  -2.3548  -1.6207   H         1 1      0.0000
    33 CL4     -1.2848   0.9264   0.7417   C.2       1 1      0.0000
    34 C34     -0.9411   3.2128   0.2118   C.3       1 1      0.0000
    35 H35     -0.6530   3.7903  -0.6753   H         1 1      0.0000
    36 H36     -2.0253   3.3180   0.3410   H         1 1      0.0000
    37 OL3     -2.1714   1.2047   1.5013   O.2       1 1      0.0000
    38 OL4     -0.5878   1.8089   0.0363   O.3       1 1      0.0000
    39 C39     -0.2314   3.7217   1.4067   C.3       1 1      0.0000
    40 H40      0.8458   3.6312   1.2832   H         1 1      0.0000
    41 H41     -0.4660   4.7703   1.5771   H         1 1      0.0000
    42 H42     -0.5191   3.1615   2.2939   H         1 1      0.0000
@<TRIPOS>BOND
     1     1     2   ar
     2     1     6   ar
     3     1    11    1
     4     2     3   ar
     5     2     7    1
     6     3     4   ar
     7     3     8    1
     8     4     5   ar
     9     4    14    1
    10     5     6   ar
    11     5     9    1
    12     6    10    1
    13    11    12    2
    14    11    13    2
    15    14    15    1
    16    14    23    1
    17    14    33    1
    18    15    16    1
    19    15    17    1
    20    15    18    1
    21    18    19    1
    22    18    25    1
    23    18    31    1
    24    19    20    1
    25    19    21    1
    26    19    22    1
    27    23    24    1
    28    25    26    1
    29    25    27    1
    30    27    28    1
    31    27    29    1
    32    27    30    1
    33    31    32    1
    34    33    37    2
    35    33    38    1
    36    34    35    1
    37    34    36    1
    38    34    38    1
    39    34    39    1
    40    39    40    1
    41    39    41    1
    42    39    42    1
@<TRIPOS>SUBSTRUCTURE
     1 1           1 GROUP             0 ****  ****    0  
@<TRIPOS>MOLECULE
Molecule Name_00171
    42    42     1     0     0
SMALL
NO_CHARGES
****
Generated from the CSD

@<TRIPOS>ATOM
     1 C1       3.4845  -0.3271  -0.2042   C.ar      1 1      0.0000
     2 C2       2.6243   0.0197  -1.2223   C.ar      1 1      0.0000
     3 C3       1.2626  -0.0546  -0.9916   C.ar      1 1      0.0000
     4 C4       0.7564  -0.4707   0.2348   C.ar      1 1      0.0000
     5 C5       1.6608  -0.8079   1.2356   C.ar      1 1      0.0000
     6 C6       3.0264  -0.7409   1.0268   C.ar      1 1      0.0000
     7 H7       3.0065   0.3442  -2.1845   H         1 1      0.0000
     8 H8       0.5793   0.2195  -1.7879   H         1 1      0.0000
     9 H9       1.2920  -1.1306   2.2035   H         1 1      0.0000
    10 H10      3.7215  -1.0084   1.8157   H         1 1      0.0000
    11 N11      4.9318  -0.2532  -0.4380   N.pl3     1 1      0.0000
    12 O12      5.6815  -0.5639   0.4745   O.2       1 1      0.0000
    13 O13      5.3223   0.1156  -1.5347   O.2       1 1      0.0000
    14 CL3     -0.7507  -0.5607   0.4789   C.3       1 1      0.0000
    15 CL1     -1.4993  -0.9348  -0.8318   C.3       1 1      0.0000
    16 H16     -1.4025  -0.1037  -1.5407   H         1 1      0.0000
    17 H17     -0.9941  -1.7977  -1.2832   H         1 1      0.0000
    18 CL      -2.9923  -1.2779  -0.6854   C.3       1 1      0.0000
    19 CL2     -3.1339  -2.4912   0.2154   C.3       1 1      0.0000
    20 H20     -3.9828  -3.1001  -0.0885   H         1 1      0.0000
    21 H21     -2.2401  -3.1101   0.1721   H         1 1      0.0000
    22 H22     -3.2868  -2.1883   1.2491   H         1 1      0.0000
    23 OL2     -0.9703  -1.5393   1.4871   O.3       1 1      0.0000
    24 H24     -1.6041  -1.1836   2.1579   H         1 1      0.0000
    25 N25     -3.7037  -0.1783  -0.0880   N.3       1 1      0.0000
    26 H26     -3.3042  -0.0319   0.8390   H         1 1      0.0000
    27 C27     -3.6503   1.1072  -0.7865   C.3       1 1      0.0000
    28 H28     -4.2336   1.0720  -1.7042   H         1 1      0.0000
    29 H29     -4.0500   1.9027  -0.1612   H         1 1      0.0000
    30 H30     -2.6251   1.3628  -1.0461   H         1 1      0.0000
    31 OL1     -3.5230  -1.6312  -1.9571   O.3       1 1      0.0000
    32 H32     -4.4762  -1.8763  -1.8588   H         1 1      0.0000
    33 CL4     -1.1608   0.8321   0.9975   C.2       1 1      0.0000
    34 C34     -0.7305   3.1608   0.8614   C.3       1 1      0.0000
    35 H35     -0.9913   3.1851   1.9267   H         1 1      0.0000
    36 H36      0.1484   3.8014   0.7182   H         1 1      0.0000
    37 OL3     -2.0337   1.0099   1.8017   O.2       1 1      0.0000
    38 OL4     -0.4324   1.7951   0.4461   O.3       1 1      0.0000
    39 C39     -1.8625   3.6548   0.0458   C.3       1 1      0.0000
    40 H40     -2.8112   3.3197   0.4597   H         1 1      0.0000
    41 H41     -1.8708   4.7424   0.0163   H         1 1      0.0000
    42 H42     -1.7903   3.2885  -0.9761   H         1 1      0.0000
@<TRIPOS>BOND
     1     1     2   ar
     2     1     6   ar
     3     1    11    1
     4     2     3   ar
     5     2     7    1
     6     3     4   ar
     7     3     8    1
     8     4     5   ar
     9     4    14    1
    10     5     6   ar
    11     5     9    1
    12     6    10    1
    13    11    12    2
    14    11    13    2
    15    14    15    1
    16    14    23    1
    17    14    33    1
    18    15    16    1
    19    15    17    1
    20    15    18    1
    21    18    19    1
    22    18    25    1
    23    18    31    1
    24    19    20    1
    25    19    21    1
    26    19    22    1
    27    23    24    1
    28    25    26    1
    29    25    27    1
    30    27    28    1
    31    27    29    1
    32    27    30    1
    33    31    32    1
    34    33    37    2
    35    33    38    1
    36    34    35    1
    37    34    36    1
    38    34    38    1
    39    34    39    1
    40    39    40    1
    41    39    41    1
    42    39    42    1
@<TRIPOS>SUBSTRUCTURE
     1 1           1 GROUP             0 ****  ****    0  
@<TRIPOS>MOLECULE
Molecule Name_00172
    42    42     1     0     0
SMALL
NO_CHARGES
****
Generated from the CSD

@<TRIPOS>ATOM
     1 C1       3.5282  -0.3189  -0.2249   C.ar      1 1      0.0000
     2 C2       2.7327  -0.4486  -1.3416   C.ar      1 1      0.0000
     3 C3       1.3595  -0.3971  -1.1849   C.ar      1 1      0.0000
     4 C4       0.7782  -0.2213   0.0659   C.ar      1 1      0.0000
     5 C5       1.6191  -0.0911   1.1657   C.ar      1 1      0.0000
     6 C6       2.9948  -0.1395   1.0321   C.ar      1 1      0.0000
     7 H7       3.1737  -0.5881  -2.3230   H         1 1      0.0000
     8 H8       0.7269  -0.4958  -2.0603   H         1 1      0.0000
     9 H9       1.1912   0.0524   2.1522   H         1 1      0.0000
    10 H10      3.6398  -0.0383   1.8986   H         1 1      0.0000
    11 N11      4.9870  -0.3732  -0.3789   N.pl3     1 1      0.0000
    12 O12      5.6786  -0.2567   0.6207   O.2       1 1      0.0000
    13 O13      5.4445  -0.5326  -1.4998   O.2       1 1      0.0000
    14 CL3     -0.7413  -0.1762   0.2327   C.3       1 1      0.0000
    15 CL1     -1.4362  -1.1112  -0.7974   C.3       1 1      0.0000
    16 H16     -1.2397  -0.7293  -1.8065   H         1 1      0.0000
    17 H17     -0.9674  -2.1011  -0.7356   H         1 1      0.0000
    18 CL      -2.9557  -1.2907  -0.6326   C.3       1 1      0.0000
    19 CL2     -3.5840  -1.4619  -2.0035   C.3       1 1      0.0000
    20 H20     -4.6625  -1.5801  -1.9215   H         1 1      0.0000
    21 H21     -3.3848  -0.5950  -2.6301   H         1 1      0.0000
    22 H22     -3.1838  -2.3410  -2.5042   H         1 1      0.0000
    23 OL2     -1.0447  -0.5720   1.5646   O.3       1 1      0.0000
    24 H24     -2.0212  -0.5142   1.7103   H         1 1      0.0000
    25 N25     -3.2404  -2.4638   0.1515   N.3       1 1      0.0000
    26 H26     -2.7890  -2.3350   1.0571   H         1 1      0.0000
    27 C27     -4.6492  -2.7640   0.4129   C.3       1 1      0.0000
    28 H28     -5.1909  -2.9140  -0.5186   H         1 1      0.0000
    29 H29     -4.7464  -3.6678   1.0108   H         1 1      0.0000
    30 H30     -5.1237  -1.9475   0.9532   H         1 1      0.0000
    31 OL1     -3.5110  -0.1143  -0.0570   O.3       1 1      0.0000
    32 H32     -4.4933  -0.2109   0.0051   H         1 1      0.0000
    33 CL4     -1.1283   1.3011   0.0205   C.2       1 1      0.0000
    34 C34     -1.2018   3.4531   1.0154   C.3       1 1      0.0000
    35 H35     -0.6435   3.9240   0.1969   H         1 1      0.0000
    36 H36     -2.2711   3.5853   0.8093   H         1 1      0.0000
    37 OL3     -1.5999   1.7234  -0.9992   O.2       1 1      0.0000
    38 OL4     -0.8755   2.0343   1.0978   O.3       1 1      0.0000
    39 C39     -0.8474   4.0843   2.3063   C.3       1 1      0.0000
    40 H40      0.2142   3.9675   2.5141   H         1 1      0.0000
    41 H41     -1.0746   5.1482   2.2907   H         1 1      0.0000
    42 H42     -1.4046   3.6306   3.1233   H         1 1      0.0000
@<TRIPOS>BOND
     1     1     2   ar
     2     1     6   ar
     3     1    11    1
     4     2     3   ar
     5     2     7    1
     6     3     4   ar
     7     3     8    1
     8     4     5   ar
     9     4    14    1
    10     5     6   ar
    11     5     9    1
    12     6    10    1
    13    11    12    2
    14    11    13    2
    15    14    15    1
    16    14    23    1
    17    14    33    1
    18    15    16    1
    19    15    17    1
    20    15    18    1
    21    18    19    1
    22    18    25    1
    23    18    31    1
    24    19    20    1
    25    19    21    1
    26    19    22    1
    27    23    24    1
    28    25    26    1
    29    25    27    1
    30    27    28    1
    31    27    29    1
    32    27    30    1
    33    31    32    1
    34    33    37    2
    35    33    38    1
    36    34    35    1
    37    34    36    1
    38    34    38    1
    39    34    39    1
    40    39    40    1
    41    39    41    1
    42    39    42    1
@<TRIPOS>SUBSTRUCTURE
     1 1           1 GROUP             0 ****  ****    0  
@<TRIPOS>MOLECULE
Molecule Name_00173
    42    42     1     0     0
SMALL
NO_CHARGES
****
Generated from the CSD

@<TRIPOS>ATOM
     1 C1       3.5530  -0.4954  -0.1095   C.ar      1 1      0.0000
     2 C2       2.9347   0.6810  -0.4707   C.ar      1 1      0.0000
     3 C3       1.5633   0.7802  -0.3216   C.ar      1 1      0.0000
     4 C4       0.8097  -0.2760   0.1782   C.ar      1 1      0.0000
     5 C5       1.4753  -1.4439   0.5337   C.ar      1 1      0.0000
     6 C6       2.8458  -1.5649   0.3931   C.ar      1 1      0.0000
     7 H7       3.5110   1.5120  -0.8637   H         1 1      0.0000
     8 H8       1.0700   1.7047  -0.6015   H         1 1      0.0000
     9 H9       0.9114  -2.2812   0.9312   H         1 1      0.0000
    10 H10      3.3529  -2.4825   0.6728   H         1 1      0.0000
    11 N11      5.0079  -0.6126  -0.2645   N.pl3     1 1      0.0000
    12 O12      5.5413  -1.6620   0.0602   O.2       1 1      0.0000
    13 O13      5.6207   0.3445  -0.7113   O.2       1 1      0.0000
    14 CL3     -0.7078  -0.1627   0.3300   C.3       1 1      0.0000
    15 CL1     -1.4223  -1.3458  -0.3829   C.3       1 1      0.0000
    16 H16     -1.4065  -1.1649  -1.4644   H         1 1      0.0000
    17 H17     -0.8396  -2.2581  -0.2049   H         1 1      0.0000
    18 CL      -2.8759  -1.6161   0.0439   C.3       1 1      0.0000
    19 CL2     -2.8916  -2.0418   1.5006   C.3       1 1      0.0000
    20 H20     -3.5937  -2.8583   1.6562   H         1 1      0.0000
    21 H21     -1.9057  -2.3781   1.8148   H         1 1      0.0000
    22 H22     -3.1874  -1.2137   2.1413   H         1 1      0.0000
    23 OL2     -1.0063  -0.1517   1.7205   O.3       1 1      0.0000
    24 H24     -1.8968   0.2544   1.8623   H         1 1      0.0000
    25 N25     -3.6694  -0.4230  -0.0932   N.3       1 1      0.0000
    26 H26     -3.2373   0.2925   0.4914   H         1 1      0.0000
    27 C27     -3.7967   0.1410  -1.4382   C.3       1 1      0.0000
    28 H28     -4.6682  -0.2664  -1.9463   H         1 1      0.0000
    29 H29     -3.9048   1.2227  -1.3941   H         1 1      0.0000
    30 H30     -2.9176  -0.0877  -2.0370   H         1 1      0.0000
    31 OL1     -3.3990  -2.6974  -0.7182   O.3       1 1      0.0000
    32 H32     -4.3246  -2.8878  -0.4263   H         1 1      0.0000
    33 CL4     -1.0775   1.1953  -0.2994   C.2       1 1      0.0000
    34 C34     -1.7287   3.4319   0.1480   C.3       1 1      0.0000
    35 H35     -0.9123   3.8593  -0.4472   H         1 1      0.0000
    36 H36     -2.6154   3.3730  -0.4953   H         1 1      0.0000
    37 OL3     -1.1007   1.3935  -1.4829   O.2       1 1      0.0000
    38 OL4     -1.3630   2.1036   0.6256   O.3       1 1      0.0000
    39 C39     -2.0057   4.2857   1.3247   C.3       1 1      0.0000
    40 H40     -1.1280   4.3587   1.9635   H         1 1      0.0000
    41 H41     -2.2840   5.2909   1.0149   H         1 1      0.0000
    42 H42     -2.8218   3.8751   1.9156   H         1 1      0.0000
@<TRIPOS>BOND
     1     1     2   ar
     2     1     6   ar
     3     1    11    1
     4     2     3   ar
     5     2     7    1
     6     3     4   ar
     7     3     8    1
     8     4     5   ar
     9     4    14    1
    10     5     6   ar
    11     5     9    1
    12     6    10    1
    13    11    12    2
    14    11    13    2
    15    14    15    1
    16    14    23    1
    17    14    33    1
    18    15    16    1
    19    15    17    1
    20    15    18    1
    21    18    19    1
    22    18    25    1
    23    18    31    1
    24    19    20    1
    25    19    21    1
    26    19    22    1
    27    23    24    1
    28    25    26    1
    29    25    27    1
    30    27    28    1
    31    27    29    1
    32    27    30    1
    33    31    32    1
    34    33    37    2
    35    33    38    1
    36    34    35    1
    37    34    36    1
    38    34    38    1
    39    34    39    1
    40    39    40    1
    41    39    41    1
    42    39    42    1
@<TRIPOS>SUBSTRUCTURE
     1 1           1 GROUP             0 ****  ****    0  
@<TRIPOS>MOLECULE
Molecule Name_00174
    42    42     1     0     0
SMALL
NO_CHARGES
****
Generated from the CSD

@<TRIPOS>ATOM
     1 C1       3.6472  -0.3817  -0.0656   C.ar      1 1      0.0000
     2 C2       2.8421   0.2885  -0.9595   C.ar      1 1      0.0000
     3 C3       1.4796   0.3245  -0.7243   C.ar      1 1      0.0000
     4 C4       0.9183  -0.2993   0.3844   C.ar      1 1      0.0000
     5 C5       1.7686  -0.9615   1.2629   C.ar      1 1      0.0000
     6 C6       3.1339  -1.0100   1.0472   C.ar      1 1      0.0000
     7 H7       3.2673   0.7778  -1.8296   H         1 1      0.0000
     8 H8       0.8397   0.8528  -1.4226   H         1 1      0.0000
     9 H9       1.3568  -1.4520   2.1386   H         1 1      0.0000
    10 H10      3.7863  -1.5316   1.7397   H         1 1      0.0000
    11 N11      5.0946  -0.4274  -0.3057   N.pl3     1 1      0.0000
    12 O12      5.5344   0.1346  -1.2966   O.2       1 1      0.0000
    13 O13      5.7951  -1.0256   0.4961   O.2       1 1      0.0000
    14 CL3     -0.5904  -0.2645   0.6321   C.3       1 1      0.0000
    15 CL1     -1.3569  -0.9344  -0.5435   C.3       1 1      0.0000
    16 H16     -1.1025  -0.4100  -1.4724   H         1 1      0.0000
    17 H17     -0.9932  -1.9639  -0.6500   H         1 1      0.0000
    18 CL      -2.8898  -0.9798  -0.4147   C.3       1 1      0.0000
    19 CL2     -3.4722   0.2936  -0.9999   C.3       1 1      0.0000
    20 H20     -4.3704   0.0783  -1.5750   H         1 1      0.0000
    21 H21     -3.7349   0.9956  -0.2112   H         1 1      0.0000
    22 H22     -2.7554   0.7780  -1.6597   H         1 1      0.0000
    23 OL2     -0.8459  -0.9406   1.8569   O.3       1 1      0.0000
    24 H24     -1.8129  -0.8987   2.0600   H         1 1      0.0000
    25 N25     -3.4214  -2.1029  -1.1414   N.3       1 1      0.0000
    26 H26     -2.9754  -2.9401  -0.7664   H         1 1      0.0000
    27 C27     -4.8676  -2.3182  -1.0692   C.3       1 1      0.0000
    28 H28     -5.3819  -1.7432  -1.8365   H         1 1      0.0000
    29 H29     -5.1089  -3.3691  -1.2146   H         1 1      0.0000
    30 H30     -5.2552  -2.0124  -0.0997   H         1 1      0.0000
    31 OL1     -3.2477  -1.0148   0.9617   O.3       1 1      0.0000
    32 H32     -4.2070  -0.7944   1.0575   H         1 1      0.0000
    33 CL4     -0.9436   1.2299   0.7710   C.2       1 1      0.0000
    34 C34     -1.3284   3.2534  -0.4053   C.3       1 1      0.0000
    35 H35     -0.8575   3.7442   0.4554   H         1 1      0.0000
    36 H36     -0.9435   3.7320  -1.3142   H         1 1      0.0000
    37 OL3     -1.1326   1.7716   1.8252   O.2       1 1      0.0000
    38 OL4     -1.0103   1.8304  -0.4110   O.3       1 1      0.0000
    39 C39     -2.7998   3.3974  -0.3347   C.3       1 1      0.0000
    40 H40     -3.1896   2.9347   0.5695   H         1 1      0.0000
    41 H41     -3.0847   4.4474  -0.3281   H         1 1      0.0000
    42 H42     -3.2752   2.9226  -1.1904   H         1 1      0.0000
@<TRIPOS>BOND
     1     1     2   ar
     2     1     6   ar
     3     1    11    1
     4     2     3   ar
     5     2     7    1
     6     3     4   ar
     7     3     8    1
     8     4     5   ar
     9     4    14    1
    10     5     6   ar
    11     5     9    1
    12     6    10    1
    13    11    12    2
    14    11    13    2
    15    14    15    1
    16    14    23    1
    17    14    33    1
    18    15    16    1
    19    15    17    1
    20    15    18    1
    21    18    19    1
    22    18    25    1
    23    18    31    1
    24    19    20    1
    25    19    21    1
    26    19    22    1
    27    23    24    1
    28    25    26    1
    29    25    27    1
    30    27    28    1
    31    27    29    1
    32    27    30    1
    33    31    32    1
    34    33    37    2
    35    33    38    1
    36    34    35    1
    37    34    36    1
    38    34    38    1
    39    34    39    1
    40    39    40    1
    41    39    41    1
    42    39    42    1
@<TRIPOS>SUBSTRUCTURE
     1 1           1 GROUP             0 ****  ****    0  
@<TRIPOS>MOLECULE
Molecule Name_00175
    42    42     1     0     0
SMALL
NO_CHARGES
****
Generated from the CSD

@<TRIPOS>ATOM
     1 C1       3.5399  -0.2392  -0.0895   C.ar      1 1      0.0000
     2 C2       2.6966   0.3756  -0.9881   C.ar      1 1      0.0000
     3 C3       1.3355   0.3470  -0.7439   C.ar      1 1      0.0000
     4 C4       0.8131  -0.2863   0.3782   C.ar      1 1      0.0000
     5 C5       1.7010  -0.8911   1.2610   C.ar      1 1      0.0000
     6 C6       3.0656  -0.8746   1.0365   C.ar      1 1      0.0000
     7 H7       3.0914   0.8717  -1.8686   H         1 1      0.0000
     8 H8       0.6657   0.8315  -1.4459   H         1 1      0.0000
     9 H9       1.3197  -1.3876   2.1470   H         1 1      0.0000
    10 H10      3.7476  -1.3519   1.7325   H         1 1      0.0000
    11 N11      4.9862  -0.2163  -0.3389   N.pl3     1 1      0.0000
    12 O12      5.3911   0.3513  -1.3415   O.2       1 1      0.0000
    13 O13      5.7208  -0.7658   0.4671   O.2       1 1      0.0000
    14 CL3     -0.6939  -0.3231   0.6359   C.3       1 1      0.0000
    15 CL1     -1.4331  -1.0496  -0.5235   C.3       1 1      0.0000
    16 H16     -1.2132  -0.5266  -1.4621   H         1 1      0.0000
    17 H17     -1.0170  -2.0602  -0.6180   H         1 1      0.0000
    18 CL      -2.9605  -1.1728  -0.3817   C.3       1 1      0.0000
    19 CL2     -3.6120   0.0683  -0.9636   C.3       1 1      0.0000
    20 H20     -4.6805  -0.0846  -1.0995   H         1 1      0.0000
    21 H21     -3.4730   0.9222  -0.3037   H         1 1      0.0000
    22 H22     -3.1790   0.3137  -1.9311   H         1 1      0.0000
    23 OL2     -0.9076  -0.9913   1.8730   O.3       1 1      0.0000
    24 H24     -1.8742  -0.9947   2.0821   H         1 1      0.0000
    25 N25     -3.4404  -2.3228  -1.1023   N.3       1 1      0.0000
    26 H26     -2.9580  -3.1369  -0.7217   H         1 1      0.0000
    27 C27     -4.8756  -2.6019  -1.0309   C.3       1 1      0.0000
    28 H28     -5.4421  -1.8525  -1.5798   H         1 1      0.0000
    29 H29     -5.1007  -3.5769  -1.4580   H         1 1      0.0000
    30 H30     -5.2186  -2.5969   0.0017   H         1 1      0.0000
    31 OL1     -3.3045  -1.2236   0.9977   O.3       1 1      0.0000
    32 H32     -4.2891  -1.2294   1.0909   H         1 1      0.0000
    33 CL4     -1.1208   1.1537   0.7536   C.2       1 1      0.0000
    34 C34     -1.6245   3.1331  -0.4525   C.3       1 1      0.0000
    35 H35     -2.0942   3.3838  -1.4117   H         1 1      0.0000
    36 H36     -2.3584   3.3276   0.3394   H         1 1      0.0000
    37 OL3     -1.3295   1.7025   1.8003   O.2       1 1      0.0000
    38 OL4     -1.2257   1.7306  -0.4374   O.3       1 1      0.0000
    39 C39     -0.4147   3.9596  -0.2434   C.3       1 1      0.0000
    40 H40      0.3150   3.7813  -1.0305   H         1 1      0.0000
    41 H41     -0.6654   5.0183  -0.2472   H         1 1      0.0000
    42 H42      0.0522   3.7253   0.7110   H         1 1      0.0000
@<TRIPOS>BOND
     1     1     2   ar
     2     1     6   ar
     3     1    11    1
     4     2     3   ar
     5     2     7    1
     6     3     4   ar
     7     3     8    1
     8     4     5   ar
     9     4    14    1
    10     5     6   ar
    11     5     9    1
    12     6    10    1
    13    11    12    2
    14    11    13    2
    15    14    15    1
    16    14    23    1
    17    14    33    1
    18    15    16    1
    19    15    17    1
    20    15    18    1
    21    18    19    1
    22    18    25    1
    23    18    31    1
    24    19    20    1
    25    19    21    1
    26    19    22    1
    27    23    24    1
    28    25    26    1
    29    25    27    1
    30    27    28    1
    31    27    29    1
    32    27    30    1
    33    31    32    1
    34    33    37    2
    35    33    38    1
    36    34    35    1
    37    34    36    1
    38    34    38    1
    39    34    39    1
    40    39    40    1
    41    39    41    1
    42    39    42    1
@<TRIPOS>SUBSTRUCTURE
     1 1           1 GROUP             0 ****  ****    0  
@<TRIPOS>MOLECULE
Molecule Name_00176
    42    42     1     0     0
SMALL
NO_CHARGES
****
Generated from the CSD

@<TRIPOS>ATOM
     1 C1       3.4575  -0.3221  -0.0788   C.ar      1 1      0.0000
     2 C2       2.6039   0.2451  -0.9987   C.ar      1 1      0.0000
     3 C3       1.2490   0.2610  -0.7217   C.ar      1 1      0.0000
     4 C4       0.7426  -0.2816   0.4541   C.ar      1 1      0.0000
     5 C5       1.6406  -0.8409   1.3564   C.ar      1 1      0.0000
     6 C6       2.9994  -0.8676   1.0998   C.ar      1 1      0.0000
     7 H7       2.9861   0.6703  -1.9209   H         1 1      0.0000
     8 H8       0.5711   0.7085  -1.4404   H         1 1      0.0000
     9 H9       1.2721  -1.2664   2.2839   H         1 1      0.0000
    10 H10      3.6894  -1.3085   1.8117   H         1 1      0.0000
    11 N11      4.8975  -0.3458  -0.3627   N.pl3     1 1      0.0000
    12 O12      5.2881   0.1419  -1.4119   O.2       1 1      0.0000
    13 O13      5.6413  -0.8522   0.4628   O.2       1 1      0.0000
    14 CL3     -0.7581  -0.2700   0.7486   C.3       1 1      0.0000
    15 CL1     -1.5385  -1.0627  -0.3382   C.3       1 1      0.0000
    16 H16     -1.3245  -0.6186  -1.3179   H         1 1      0.0000
    17 H17     -1.1498  -2.0882  -0.3626   H         1 1      0.0000
    18 CL      -3.0653  -1.1342  -0.1595   C.3       1 1      0.0000
    19 CL2     -3.6974   0.0739  -0.8262   C.3       1 1      0.0000
    20 H20     -4.7641  -0.0812  -0.9738   H         1 1      0.0000
    21 H21     -3.5657   0.9645  -0.2153   H         1 1      0.0000
    22 H22     -3.2442   0.2593  -1.7979   H         1 1      0.0000
    23 OL2     -0.9533  -0.8437   2.0351   O.3       1 1      0.0000
    24 H24     -1.9145  -0.8129   2.2663   H         1 1      0.0000
    25 N25     -3.5878  -2.3244  -0.7778   N.3       1 1      0.0000
    26 H26     -4.5952  -2.3269  -0.6179   H         1 1      0.0000
    27 C27     -3.3817  -2.4710  -2.2197   C.3       1 1      0.0000
    28 H28     -2.3204  -2.4758  -2.4591   H         1 1      0.0000
    29 H29     -3.8143  -3.4026  -2.5784   H         1 1      0.0000
    30 H30     -3.8476  -1.6503  -2.7613   H         1 1      0.0000
    31 OL1     -3.3827  -1.0669   1.2256   O.3       1 1      0.0000
    32 H32     -4.3650  -1.0872   1.3390   H         1 1      0.0000
    33 CL4     -1.1551   1.2196   0.7696   C.2       1 1      0.0000
    34 C34     -1.6577   3.1160  -0.5637   C.3       1 1      0.0000
    35 H35     -2.1499   3.3057  -1.5256   H         1 1      0.0000
    36 H36     -2.3651   3.3818   0.2314   H         1 1      0.0000
    37 OL3     -1.3240   1.8469   1.7787   O.2       1 1      0.0000
    38 OL4     -1.2836   1.7106  -0.4570   O.3       1 1      0.0000
    39 C39     -0.4279   3.9313  -0.4484   C.3       1 1      0.0000
    40 H40      0.2758   3.6819  -1.2399   H         1 1      0.0000
    41 H41     -0.6597   4.9917  -0.5228   H         1 1      0.0000
    42 H42      0.0618   3.7576   0.5075   H         1 1      0.0000
@<TRIPOS>BOND
     1     1     2   ar
     2     1     6   ar
     3     1    11    1
     4     2     3   ar
     5     2     7    1
     6     3     4   ar
     7     3     8    1
     8     4     5   ar
     9     4    14    1
    10     5     6   ar
    11     5     9    1
    12     6    10    1
    13    11    12    2
    14    11    13    2
    15    14    15    1
    16    14    23    1
    17    14    33    1
    18    15    16    1
    19    15    17    1
    20    15    18    1
    21    18    19    1
    22    18    25    1
    23    18    31    1
    24    19    20    1
    25    19    21    1
    26    19    22    1
    27    23    24    1
    28    25    26    1
    29    25    27    1
    30    27    28    1
    31    27    29    1
    32    27    30    1
    33    31    32    1
    34    33    37    2
    35    33    38    1
    36    34    35    1
    37    34    36    1
    38    34    38    1
    39    34    39    1
    40    39    40    1
    41    39    41    1
    42    39    42    1
@<TRIPOS>SUBSTRUCTURE
     1 1           1 GROUP             0 ****  ****    0  
@<TRIPOS>MOLECULE
Molecule Name_00177
    42    42     1     0     0
SMALL
NO_CHARGES
****
Generated from the CSD

@<TRIPOS>ATOM
     1 C1       3.4436  -0.3220  -0.1033   C.ar      1 1      0.0000
     2 C2       2.6269   0.3444  -0.9895   C.ar      1 1      0.0000
     3 C3       1.2652   0.3636  -0.7478   C.ar      1 1      0.0000
     4 C4       0.7161  -0.2730   0.3597   C.ar      1 1      0.0000
     5 C5       1.5779  -0.9308   1.2303   C.ar      1 1      0.0000
     6 C6       2.9426  -0.9627   1.0081   C.ar      1 1      0.0000
     7 H7       3.0426   0.8437  -1.8585   H         1 1      0.0000
     8 H8       0.6162   0.8888  -1.4400   H         1 1      0.0000
     9 H9       1.1757  -1.4311   2.1049   H         1 1      0.0000
    10 H10      3.6040  -1.4810   1.6944   H         1 1      0.0000
    11 N11      4.8903  -0.3501  -0.3503   N.pl3     1 1      0.0000
    12 O12      5.3191   0.2228  -1.3399   O.2       1 1      0.0000
    13 O13      5.6012  -0.9451   0.4446   O.2       1 1      0.0000
    14 CL3     -0.7918  -0.2566   0.6145   C.3       1 1      0.0000
    15 CL1     -1.5560  -0.9303  -0.5604   C.3       1 1      0.0000
    16 H16     -1.3069  -0.4031  -1.4892   H         1 1      0.0000
    17 H17     -1.1856  -1.9571  -0.6688   H         1 1      0.0000
    18 CL      -3.0882  -0.9862  -0.4288   C.3       1 1      0.0000
    19 CL2     -3.6792   0.2924  -0.9938   C.3       1 1      0.0000
    20 H20     -4.7389   0.1667  -1.2060   H         1 1      0.0000
    21 H21     -3.5699   1.1128  -0.2876   H         1 1      0.0000
    22 H22     -3.1793   0.5725  -1.9187   H         1 1      0.0000
    23 OL2     -1.0337  -0.9409   1.8376   O.3       1 1      0.0000
    24 H24     -2.0002  -0.9110   2.0453   H         1 1      0.0000
    25 N25     -3.6154  -2.1015  -1.1705   N.3       1 1      0.0000
    26 H26     -3.3338  -1.9741  -2.1426   H         1 1      0.0000
    27 C27     -3.1738  -3.4377  -0.7673   C.3       1 1      0.0000
    28 H28     -3.1950  -3.5404   0.3157   H         1 1      0.0000
    29 H29     -3.8202  -4.2023  -1.1929   H         1 1      0.0000
    30 H30     -2.1572  -3.6264  -1.1058   H         1 1      0.0000
    31 OL1     -3.4426  -1.0433   0.9478   O.3       1 1      0.0000
    32 H32     -4.4279  -1.0535   1.0334   H         1 1      0.0000
    33 CL4     -1.1615   1.2330   0.7616   C.2       1 1      0.0000
    34 C34     -1.5907   3.2532  -0.4050   C.3       1 1      0.0000
    35 H35     -2.0519   3.5402  -1.3581   H         1 1      0.0000
    36 H36     -2.3153   3.4603   0.3922   H         1 1      0.0000
    37 OL3     -1.3472   1.7691   1.8192   O.2       1 1      0.0000
    38 OL4     -1.2460   1.8364  -0.4178   O.3       1 1      0.0000
    39 C39     -0.3497   4.0284  -0.1829   C.3       1 1      0.0000
    40 H40      0.3713   3.8375  -0.9750   H         1 1      0.0000
    41 H41     -0.5596   5.0959  -0.1658   H         1 1      0.0000
    42 H42      0.1094   3.7581   0.7657   H         1 1      0.0000
@<TRIPOS>BOND
     1     1     2   ar
     2     1     6   ar
     3     1    11    1
     4     2     3   ar
     5     2     7    1
     6     3     4   ar
     7     3     8    1
     8     4     5   ar
     9     4    14    1
    10     5     6   ar
    11     5     9    1
    12     6    10    1
    13    11    12    2
    14    11    13    2
    15    14    15    1
    16    14    23    1
    17    14    33    1
    18    15    16    1
    19    15    17    1
    20    15    18    1
    21    18    19    1
    22    18    25    1
    23    18    31    1
    24    19    20    1
    25    19    21    1
    26    19    22    1
    27    23    24    1
    28    25    26    1
    29    25    27    1
    30    27    28    1
    31    27    29    1
    32    27    30    1
    33    31    32    1
    34    33    37    2
    35    33    38    1
    36    34    35    1
    37    34    36    1
    38    34    38    1
    39    34    39    1
    40    39    40    1
    41    39    41    1
    42    39    42    1
@<TRIPOS>SUBSTRUCTURE
     1 1           1 GROUP             0 ****  ****    0  
@<TRIPOS>MOLECULE
Molecule Name_00178
    42    42     1     0     0
SMALL
NO_CHARGES
****
Generated from the CSD

@<TRIPOS>ATOM
     1 C1       3.4757  -0.2148  -0.2200   C.ar      1 1      0.0000
     2 C2       2.9570   0.2145   0.9814   C.ar      1 1      0.0000
     3 C3       1.5881   0.1553   1.1697   C.ar      1 1      0.0000
     4 C4       0.7394  -0.3220   0.1772   C.ar      1 1      0.0000
     5 C5       1.3061  -0.7485  -1.0189   C.ar      1 1      0.0000
     6 C6       2.6722  -0.6983  -1.2286   C.ar      1 1      0.0000
     7 H7       3.6083   0.5909   1.7634   H         1 1      0.0000
     8 H8       1.1729   0.4892   2.1144   H         1 1      0.0000
     9 H9       0.6666  -1.1303  -1.8077   H         1 1      0.0000
    10 H10      3.1016  -1.0326  -2.1672   H         1 1      0.0000
    11 N11      4.9271  -0.1555  -0.4315   N.pl3     1 1      0.0000
    12 O12      5.3715  -0.5398  -1.5020   O.2       1 1      0.0000
    13 O13      5.6260   0.2755   0.4724   O.2       1 1      0.0000
    14 CL3     -0.7743  -0.3743   0.3886   C.3       1 1      0.0000
    15 CL1     -1.5045  -0.7151  -0.9414   C.3       1 1      0.0000
    16 H16     -1.3781   0.1240  -1.6362   H         1 1      0.0000
    17 H17     -1.0073  -1.5811  -1.3956   H         1 1      0.0000
    18 CL      -3.0064  -1.0310  -0.8285   C.3       1 1      0.0000
    19 CL2     -3.5725  -1.2419  -2.2207   C.3       1 1      0.0000
    20 H20     -4.6382  -1.4565  -2.1753   H         1 1      0.0000
    21 H21     -3.4315  -0.3537  -2.8330   H         1 1      0.0000
    22 H22     -3.0795  -2.0762  -2.7153   H         1 1      0.0000
    23 OL2     -1.0412  -1.3568   1.3816   O.3       1 1      0.0000
    24 H24     -1.6575  -0.9816   2.0579   H         1 1      0.0000
    25 N25     -3.2102  -2.2336  -0.0640   N.3       1 1      0.0000
    26 H26     -2.8015  -2.0754   0.8570   H         1 1      0.0000
    27 C27     -4.5942  -2.6609   0.1481   C.3       1 1      0.0000
    28 H28     -5.0901  -2.8480  -0.8021   H         1 1      0.0000
    29 H29     -4.6295  -3.5765   0.7349   H         1 1      0.0000
    30 H30     -5.1569  -1.8961   0.6793   H         1 1      0.0000
    31 OL1     -3.6827   0.0848  -0.2616   O.3       1 1      0.0000
    32 H32     -4.6539  -0.1000  -0.2319   H         1 1      0.0000
    33 CL4     -1.1584   1.0236   0.9133   C.2       1 1      0.0000
    34 C34     -1.2037   3.3420   0.4138   C.3       1 1      0.0000
    35 H35     -1.3577   3.9619  -0.4780   H         1 1      0.0000
    36 H36     -2.1311   3.3636   0.9995   H         1 1      0.0000
    37 OL3     -1.6462   1.2160   1.9928   O.2       1 1      0.0000
    38 OL4     -0.8828   1.9731   0.0274   O.3       1 1      0.0000
    39 C39     -0.0787   3.8710   1.2169   C.3       1 1      0.0000
    40 H40      0.8439   3.8635   0.6403   H         1 1      0.0000
    41 H41     -0.2752   4.8947   1.5286   H         1 1      0.0000
    42 H42      0.0747   3.2684   2.1097   H         1 1      0.0000
@<TRIPOS>BOND
     1     1     2   ar
     2     1     6   ar
     3     1    11    1
     4     2     3   ar
     5     2     7    1
     6     3     4   ar
     7     3     8    1
     8     4     5   ar
     9     4    14    1
    10     5     6   ar
    11     5     9    1
    12     6    10    1
    13    11    12    2
    14    11    13    2
    15    14    15    1
    16    14    23    1
    17    14    33    1
    18    15    16    1
    19    15    17    1
    20    15    18    1
    21    18    19    1
    22    18    25    1
    23    18    31    1
    24    19    20    1
    25    19    21    1
    26    19    22    1
    27    23    24    1
    28    25    26    1
    29    25    27    1
    30    27    28    1
    31    27    29    1
    32    27    30    1
    33    31    32    1
    34    33    37    2
    35    33    38    1
    36    34    35    1
    37    34    36    1
    38    34    38    1
    39    34    39    1
    40    39    40    1
    41    39    41    1
    42    39    42    1
@<TRIPOS>SUBSTRUCTURE
     1 1           1 GROUP             0 ****  ****    0  
@<TRIPOS>MOLECULE
Molecule Name_00179
    42    42     1     0     0
SMALL
NO_CHARGES
****
Generated from the CSD

@<TRIPOS>ATOM
     1 C1       3.3746  -0.3058  -0.2159   C.ar      1 1      0.0000
     2 C2       2.8859   0.1745   0.9787   C.ar      1 1      0.0000
     3 C3       1.5180   0.1714   1.1828   C.ar      1 1      0.0000
     4 C4       0.6409  -0.3005   0.2125   C.ar      1 1      0.0000
     5 C5       1.1778  -0.7797  -0.9773   C.ar      1 1      0.0000
     6 C6       2.5423  -0.7860  -1.2025   C.ar      1 1      0.0000
     7 H7       3.5595   0.5473   1.7433   H         1 1      0.0000
     8 H8       1.1262   0.5457   2.1223   H         1 1      0.0000
     9 H9       0.5157  -1.1585  -1.7487   H         1 1      0.0000
    10 H10      2.9483  -1.1611  -2.1362   H         1 1      0.0000
    11 N11      4.8246  -0.3063  -0.4441   N.pl3     1 1      0.0000
    12 O12      5.2423  -0.7354  -1.5083   O.2       1 1      0.0000
    13 O13      5.5492   0.1225   0.4404   O.2       1 1      0.0000
    14 CL3     -0.8712  -0.2908   0.4411   C.3       1 1      0.0000
    15 CL1     -1.6286  -0.6397  -0.8715   C.3       1 1      0.0000
    16 H16     -1.4792   0.1752  -1.5901   H         1 1      0.0000
    17 H17     -1.1690  -1.5355  -1.3071   H         1 1      0.0000
    18 CL      -3.1397  -0.8964  -0.7343   C.3       1 1      0.0000
    19 CL2     -3.7292  -1.1233  -2.1144   C.3       1 1      0.0000
    20 H20     -4.7986  -1.3130  -2.0506   H         1 1      0.0000
    21 H21     -3.5768  -0.2513  -2.7470   H         1 1      0.0000
    22 H22     -3.2615  -1.9785  -2.5977   H         1 1      0.0000
    23 OL2     -1.1628  -1.2357   1.4631   O.3       1 1      0.0000
    24 H24     -2.1319  -1.2188   1.6596   H         1 1      0.0000
    25 N25     -3.3791  -2.0695   0.0646   N.3       1 1      0.0000
    26 H26     -4.3904  -2.1834   0.1333   H         1 1      0.0000
    27 C27     -2.8374  -3.3354  -0.4325   C.3       1 1      0.0000
    28 H28     -1.7551  -3.2805  -0.5289   H         1 1      0.0000
    29 H29     -3.0762  -4.1506   0.2473   H         1 1      0.0000
    30 H30     -3.2528  -3.5757  -1.4090   H         1 1      0.0000
    31 OL1     -3.7679   0.2586  -0.1911   O.3       1 1      0.0000
    32 H32     -4.7425   0.1031  -0.1266   H         1 1      0.0000
    33 CL4     -1.1974   1.1341   0.9314   C.2       1 1      0.0000
    34 C34     -1.1628   3.4383   0.3696   C.3       1 1      0.0000
    35 H35     -1.3040   4.0394  -0.5372   H         1 1      0.0000
    36 H36     -2.0820   3.5101   0.9640   H         1 1      0.0000
    37 OL3     -1.6654   1.3734   2.0104   O.2       1 1      0.0000
    38 OL4     -0.8971   2.0485   0.0172   O.3       1 1      0.0000
    39 C39     -0.0099   3.9464   1.1462   C.3       1 1      0.0000
    40 H40      0.9051   3.8891   0.5604   H         1 1      0.0000
    41 H41     -0.1649   4.9847   1.4320   H         1 1      0.0000
    42 H42      0.1313   3.3627   2.0534   H         1 1      0.0000
@<TRIPOS>BOND
     1     1     2   ar
     2     1     6   ar
     3     1    11    1
     4     2     3   ar
     5     2     7    1
     6     3     4   ar
     7     3     8    1
     8     4     5   ar
     9     4    14    1
    10     5     6   ar
    11     5     9    1
    12     6    10    1
    13    11    12    2
    14    11    13    2
    15    14    15    1
    16    14    23    1
    17    14    33    1
    18    15    16    1
    19    15    17    1
    20    15    18    1
    21    18    19    1
    22    18    25    1
    23    18    31    1
    24    19    20    1
    25    19    21    1
    26    19    22    1
    27    23    24    1
    28    25    26    1
    29    25    27    1
    30    27    28    1
    31    27    29    1
    32    27    30    1
    33    31    32    1
    34    33    37    2
    35    33    38    1
    36    34    35    1
    37    34    36    1
    38    34    38    1
    39    34    39    1
    40    39    40    1
    41    39    41    1
    42    39    42    1
@<TRIPOS>SUBSTRUCTURE
     1 1           1 GROUP             0 ****  ****    0  
@<TRIPOS>MOLECULE
Molecule Name_00180
    42    42     1     0     0
SMALL
NO_CHARGES
****
Generated from the CSD

@<TRIPOS>ATOM
     1 C1       3.4942  -0.2143  -0.1438   C.ar      1 1      0.0000
     2 C2       2.9855   0.4165   0.9697   C.ar      1 1      0.0000
     3 C3       1.6214   0.3663   1.1929   C.ar      1 1      0.0000
     4 C4       0.7678  -0.3001   0.3207   C.ar      1 1      0.0000
     5 C5       1.3246  -0.9262  -0.7889   C.ar      1 1      0.0000
     6 C6       2.6857  -0.8887  -1.0315   C.ar      1 1      0.0000
     7 H7       3.6406   0.9415   1.6571   H         1 1      0.0000
     8 H8       1.2141   0.8585   2.0692   H         1 1      0.0000
     9 H9       0.6812  -1.4575  -1.4823   H         1 1      0.0000
    10 H10      3.1073  -1.3801  -1.9022   H         1 1      0.0000
    11 N11      4.9403  -0.1667  -0.3915   N.pl3     1 1      0.0000
    12 O12      5.3759  -0.7308  -1.3830   O.2       1 1      0.0000
    13 O13      5.6438   0.4351   0.4049   O.2       1 1      0.0000
    14 CL3     -0.7408  -0.3421   0.5684   C.3       1 1      0.0000
    15 CL1     -1.4835  -0.9427  -0.6588   C.3       1 1      0.0000
    16 H16     -1.4123  -0.2347  -1.4932   H         1 1      0.0000
    17 H17     -0.9563  -1.8533  -0.9690   H         1 1      0.0000
    18 CL      -2.9659  -1.2973  -0.4469   C.3       1 1      0.0000
    19 CL2     -3.7070  -0.0597   0.0249   C.3       1 1      0.0000
    20 H20     -4.7808  -0.1818  -0.1005   H         1 1      0.0000
    21 H21     -3.5082   0.1311   1.0774   H         1 1      0.0000
    22 H22     -3.3968   0.8153  -0.5426   H         1 1      0.0000
    23 OL2     -0.9687  -1.1244   1.7339   O.3       1 1      0.0000
    24 H24     -1.9343  -1.1223   1.9476   H         1 1      0.0000
    25 N25     -3.5570  -1.7425  -1.6815   N.3       1 1      0.0000
    26 H26     -3.0143  -2.5449  -2.0008   H         1 1      0.0000
    27 C27     -4.9584  -2.1632  -1.6350   C.3       1 1      0.0000
    28 H28     -5.6144  -1.3055  -1.5016   H         1 1      0.0000
    29 H29     -5.2410  -2.6658  -2.5577   H         1 1      0.0000
    30 H30     -5.1275  -2.8509  -0.8090   H         1 1      0.0000
    31 OL1     -3.0760  -2.2737   0.5819   O.3       1 1      0.0000
    32 H32     -4.0310  -2.4298   0.7861   H         1 1      0.0000
    33 CL4     -1.1495   1.1218   0.8275   C.2       1 1      0.0000
    34 C34     -1.2574   3.3026  -0.0991   C.3       1 1      0.0000
    35 H35     -1.4401   3.7396  -1.0886   H         1 1      0.0000
    36 H36     -2.1757   3.4157   0.4903   H         1 1      0.0000
    37 OL3     -1.6246   1.5048   1.8610   O.2       1 1      0.0000
    38 OL4     -0.9104   1.8921  -0.2268   O.3       1 1      0.0000
    39 C39     -0.1327   3.9965   0.5672   C.3       1 1      0.0000
    40 H40      0.7806   3.8988  -0.0159   H         1 1      0.0000
    41 H41     -0.3484   5.0565   0.6842   H         1 1      0.0000
    42 H42      0.0489   3.5767   1.5544   H         1 1      0.0000
@<TRIPOS>BOND
     1     1     2   ar
     2     1     6   ar
     3     1    11    1
     4     2     3   ar
     5     2     7    1
     6     3     4   ar
     7     3     8    1
     8     4     5   ar
     9     4    14    1
    10     5     6   ar
    11     5     9    1
    12     6    10    1
    13    11    12    2
    14    11    13    2
    15    14    15    1
    16    14    23    1
    17    14    33    1
    18    15    16    1
    19    15    17    1
    20    15    18    1
    21    18    19    1
    22    18    25    1
    23    18    31    1
    24    19    20    1
    25    19    21    1
    26    19    22    1
    27    23    24    1
    28    25    26    1
    29    25    27    1
    30    27    28    1
    31    27    29    1
    32    27    30    1
    33    31    32    1
    34    33    37    2
    35    33    38    1
    36    34    35    1
    37    34    36    1
    38    34    38    1
    39    34    39    1
    40    39    40    1
    41    39    41    1
    42    39    42    1
@<TRIPOS>SUBSTRUCTURE
     1 1           1 GROUP             0 ****  ****    0  
@<TRIPOS>MOLECULE
Molecule Name_00181
    42    42     1     0     0
SMALL
NO_CHARGES
****
Generated from the CSD

@<TRIPOS>ATOM
     1 C1       3.5060  -0.1714  -0.2636   C.ar      1 1      0.0000
     2 C2       2.9797   0.1382   0.9708   C.ar      1 1      0.0000
     3 C3       1.6153   0.0112   1.1587   C.ar      1 1      0.0000
     4 C4       0.7786  -0.4159   0.1337   C.ar      1 1      0.0000
     5 C5       1.3528  -0.7212  -1.0953   C.ar      1 1      0.0000
     6 C6       2.7146  -0.6015  -1.3053   C.ar      1 1      0.0000
     7 H7       3.6215   0.4744   1.7785   H         1 1      0.0000
     8 H8       1.1942   0.2507   2.1291   H         1 1      0.0000
     9 H9       0.7229  -1.0618  -1.9103   H         1 1      0.0000
    10 H10      3.1499  -0.8414  -2.2698   H         1 1      0.0000
    11 N11      4.9526  -0.0393  -0.4750   N.pl3     1 1      0.0000
    12 O12      5.4039  -0.3176  -1.5750   O.2       1 1      0.0000
    13 O13      5.6408   0.3431   0.4585   O.2       1 1      0.0000
    14 CL3     -0.7306  -0.5434   0.3458   C.3       1 1      0.0000
    15 CL1     -1.4564  -0.8024  -1.0049   C.3       1 1      0.0000
    16 H16     -1.3667   0.0948  -1.6292   H         1 1      0.0000
    17 H17     -0.9298  -1.6088  -1.5302   H         1 1      0.0000
    18 CL      -2.9444  -1.1839  -0.9125   C.3       1 1      0.0000
    19 CL2     -3.0666  -2.5320  -0.2262   C.3       1 1      0.0000
    20 H20     -3.9250  -3.0820  -0.6063   H         1 1      0.0000
    21 H21     -2.1762  -3.1336  -0.3964   H         1 1      0.0000
    22 H22     -3.1919  -2.4083   0.8475   H         1 1      0.0000
    23 OL2     -0.9530  -1.6132   1.2561   O.3       1 1      0.0000
    24 H24     -1.5366  -1.3028   1.9917   H         1 1      0.0000
    25 N25     -3.6656  -0.2084  -0.1378   N.3       1 1      0.0000
    26 H26     -3.5488   0.6906  -0.6055   H         1 1      0.0000
    27 C27     -5.1042  -0.4219   0.0289   C.3       1 1      0.0000
    28 H28     -5.2983  -1.3702   0.5256   H         1 1      0.0000
    29 H29     -5.5449   0.3715   0.6289   H         1 1      0.0000
    30 H30     -5.6064  -0.4358  -0.9362   H         1 1      0.0000
    31 OL1     -3.4779  -1.3271  -2.2235   O.3       1 1      0.0000
    32 H32     -4.4210  -1.6191  -2.1645   H         1 1      0.0000
    33 CL4     -1.1640   0.7913   0.9845   C.2       1 1      0.0000
    34 C34     -1.3009   3.1392   0.6765   C.3       1 1      0.0000
    35 H35     -1.4844   3.8234  -0.1611   H         1 1      0.0000
    36 H36     -2.2243   3.0772   1.2654   H         1 1      0.0000
    37 OL3     -1.6513   0.8760   2.0780   O.2       1 1      0.0000
    38 OL4     -0.9308   1.8197   0.1782   O.3       1 1      0.0000
    39 C39     -0.1913   3.6438   1.5159   C.3       1 1      0.0000
    40 H40      0.7269   3.7188   0.9371   H         1 1      0.0000
    41 H41     -0.4244   4.6303   1.9110   H         1 1      0.0000
    42 H42     -0.0089   2.9767   2.3558   H         1 1      0.0000
@<TRIPOS>BOND
     1     1     2   ar
     2     1     6   ar
     3     1    11    1
     4     2     3   ar
     5     2     7    1
     6     3     4   ar
     7     3     8    1
     8     4     5   ar
     9     4    14    1
    10     5     6   ar
    11     5     9    1
    12     6    10    1
    13    11    12    2
    14    11    13    2
    15    14    15    1
    16    14    23    1
    17    14    33    1
    18    15    16    1
    19    15    17    1
    20    15    18    1
    21    18    19    1
    22    18    25    1
    23    18    31    1
    24    19    20    1
    25    19    21    1
    26    19    22    1
    27    23    24    1
    28    25    26    1
    29    25    27    1
    30    27    28    1
    31    27    29    1
    32    27    30    1
    33    31    32    1
    34    33    37    2
    35    33    38    1
    36    34    35    1
    37    34    36    1
    38    34    38    1
    39    34    39    1
    40    39    40    1
    41    39    41    1
    42    39    42    1
@<TRIPOS>SUBSTRUCTURE
     1 1           1 GROUP             0 ****  ****    0  
@<TRIPOS>MOLECULE
Molecule Name_00182
    42    42     1     0     0
SMALL
NO_CHARGES
****
Generated from the CSD

@<TRIPOS>ATOM
     1 C1       3.5208  -0.3302  -0.0908   C.ar      1 1      0.0000
     2 C2       2.8121   0.4014  -1.0177   C.ar      1 1      0.0000
     3 C3       1.4383   0.4862  -0.8830   C.ar      1 1      0.0000
     4 C4       0.7710  -0.1493   0.1583   C.ar      1 1      0.0000
     5 C5       1.5261  -0.8743   1.0734   C.ar      1 1      0.0000
     6 C6       2.9009  -0.9724   0.9579   C.ar      1 1      0.0000
     7 H7       3.3206   0.9005  -1.8360   H         1 1      0.0000
     8 H8       0.8740   1.0629  -1.6077   H         1 1      0.0000
     9 H9       1.0306  -1.3754   1.8982   H         1 1      0.0000
    10 H10      3.4783  -1.5428   1.6779   H         1 1      0.0000
    11 N11      4.9793  -0.4283  -0.2245   N.pl3     1 1      0.0000
    12 O12      5.5934  -1.0806   0.6053   O.2       1 1      0.0000
    13 O13      5.5142   0.1468  -1.1596   O.2       1 1      0.0000
    14 CL3     -0.7496  -0.0599   0.2945   C.3       1 1      0.0000
    15 CL1     -1.4397  -1.2332  -0.4576   C.3       1 1      0.0000
    16 H16     -1.4151  -1.0230  -1.5337   H         1 1      0.0000
    17 H17     -0.8460  -2.1417  -0.2978   H         1 1      0.0000
    18 CL      -2.8937  -1.5351  -0.0540   C.3       1 1      0.0000
    19 CL2     -3.7254  -0.2775  -0.2275   C.3       1 1      0.0000
    20 H20     -4.7821  -0.4906  -0.0804   H         1 1      0.0000
    21 H21     -3.4296   0.4829   0.4923   H         1 1      0.0000
    22 H22     -3.5985   0.1341  -1.2266   H         1 1      0.0000
    23 OL2     -1.0646  -0.0893   1.6811   O.3       1 1      0.0000
    24 H24     -2.0364   0.0505   1.8004   H         1 1      0.0000
    25 N25     -3.4435  -2.5673  -0.8932   N.3       1 1      0.0000
    26 H26     -2.8497  -3.3894  -0.7841   H         1 1      0.0000
    27 C27     -4.8172  -2.9901  -0.6151   C.3       1 1      0.0000
    28 H28     -5.5168  -2.1795  -0.8082   H         1 1      0.0000
    29 H29     -5.0953  -3.8345  -1.2423   H         1 1      0.0000
    30 H30     -4.9252  -3.2904   0.4250   H         1 1      0.0000
    31 OL1     -2.9388  -1.8850   1.3241   O.3       1 1      0.0000
    32 H32     -3.8791  -2.0239   1.5974   H         1 1      0.0000
    33 CL4     -1.1301   1.3092  -0.3038   C.2       1 1      0.0000
    34 C34     -1.2070   3.6474   0.0875   C.3       1 1      0.0000
    35 H35     -0.6391   3.8856  -0.8204   H         1 1      0.0000
    36 H36     -2.2738   3.7209  -0.1572   H         1 1      0.0000
    37 OL3     -1.5902   1.4477  -1.4036   O.2       1 1      0.0000
    38 OL4     -0.8858   2.3005   0.5446   O.3       1 1      0.0000
    39 C39     -0.8635   4.5966   1.1699   C.3       1 1      0.0000
    40 H40      0.1955   4.5385   1.4122   H         1 1      0.0000
    41 H41     -1.0874   5.6188   0.8719   H         1 1      0.0000
    42 H42     -1.4302   4.3746   2.0717   H         1 1      0.0000
@<TRIPOS>BOND
     1     1     2   ar
     2     1     6   ar
     3     1    11    1
     4     2     3   ar
     5     2     7    1
     6     3     4   ar
     7     3     8    1
     8     4     5   ar
     9     4    14    1
    10     5     6   ar
    11     5     9    1
    12     6    10    1
    13    11    12    2
    14    11    13    2
    15    14    15    1
    16    14    23    1
    17    14    33    1
    18    15    16    1
    19    15    17    1
    20    15    18    1
    21    18    19    1
    22    18    25    1
    23    18    31    1
    24    19    20    1
    25    19    21    1
    26    19    22    1
    27    23    24    1
    28    25    26    1
    29    25    27    1
    30    27    28    1
    31    27    29    1
    32    27    30    1
    33    31    32    1
    34    33    37    2
    35    33    38    1
    36    34    35    1
    37    34    36    1
    38    34    38    1
    39    34    39    1
    40    39    40    1
    41    39    41    1
    42    39    42    1
@<TRIPOS>SUBSTRUCTURE
     1 1           1 GROUP             0 ****  ****    0  
@<TRIPOS>MOLECULE
Molecule Name_00183
    42    42     1     0     0
SMALL
NO_CHARGES
****
Generated from the CSD

@<TRIPOS>ATOM
     1 C1       3.4570  -0.3952  -0.0694   C.ar      1 1      0.0000
     2 C2       2.7288   0.2579  -1.0388   C.ar      1 1      0.0000
     3 C3       1.3596   0.3672  -0.8762   C.ar      1 1      0.0000
     4 C4       0.7162  -0.1671   0.2346   C.ar      1 1      0.0000
     5 C5       1.4906  -0.8151   1.1905   C.ar      1 1      0.0000
     6 C6       2.8610  -0.9360   1.0482   C.ar      1 1      0.0000
     7 H7       3.2186   0.6777  -1.9112   H         1 1      0.0000
     8 H8       0.7802   0.8826  -1.6343   H         1 1      0.0000
     9 H9       1.0139  -1.2363   2.0693   H         1 1      0.0000
    10 H10      3.4536  -1.4456   1.8008   H         1 1      0.0000
    11 N11      4.9106  -0.5184  -0.2319   N.pl3     1 1      0.0000
    12 O12      5.5422  -1.1003   0.6363   O.2       1 1      0.0000
    13 O13      5.4242  -0.0336  -1.2281   O.2       1 1      0.0000
    14 CL3     -0.7996  -0.0517   0.4021   C.3       1 1      0.0000
    15 CL1     -1.5178  -1.2805  -0.2243   C.3       1 1      0.0000
    16 H16     -1.5213  -1.1666  -1.3151   H         1 1      0.0000
    17 H17     -0.9261  -2.1767  -0.0005   H         1 1      0.0000
    18 CL      -2.9622  -1.5323   0.2430   C.3       1 1      0.0000
    19 CL2     -3.7906  -0.2884  -0.0217   C.3       1 1      0.0000
    20 H20     -4.8454  -0.4810   0.1626   H         1 1      0.0000
    21 H21     -3.4772   0.5285   0.6249   H         1 1      0.0000
    22 H22     -3.6807   0.0355  -1.0546   H         1 1      0.0000
    23 OL2     -1.0773   0.0450   1.7935   O.3       1 1      0.0000
    24 H24     -2.0443   0.2053   1.9253   H         1 1      0.0000
    25 N25     -3.5408  -2.6314  -0.4844   N.3       1 1      0.0000
    26 H26     -4.4865  -2.7629  -0.1254   H         1 1      0.0000
    27 C27     -3.6495  -2.4848  -1.9369   C.3       1 1      0.0000
    28 H28     -2.6659  -2.3696  -2.3876   H         1 1      0.0000
    29 H29     -4.1243  -3.3586  -2.3783   H         1 1      0.0000
    30 H30     -4.2441  -1.6104  -2.1928   H         1 1      0.0000
    31 OL1     -2.9723  -1.7557   1.6479   O.3       1 1      0.0000
    32 H32     -3.9033  -1.8922   1.9524   H         1 1      0.0000
    33 CL4     -1.1863   1.2624  -0.3055   C.2       1 1      0.0000
    34 C34     -1.2381   3.6267  -0.1211   C.3       1 1      0.0000
    35 H35     -0.6921   3.7787  -1.0603   H         1 1      0.0000
    36 H36     -2.3103   3.6875  -0.3447   H         1 1      0.0000
    37 OL3     -1.6735   1.3072  -1.4014   O.2       1 1      0.0000
    38 OL4     -0.9140   2.3227   0.4454   O.3       1 1      0.0000
    39 C39     -0.8609   4.6648   0.8641   C.3       1 1      0.0000
    40 H40      0.2036   4.6191   1.0842   H         1 1      0.0000
    41 H41     -1.0858   5.6585   0.4824   H         1 1      0.0000
    42 H42     -1.4058   4.5283   1.7959   H         1 1      0.0000
@<TRIPOS>BOND
     1     1     2   ar
     2     1     6   ar
     3     1    11    1
     4     2     3   ar
     5     2     7    1
     6     3     4   ar
     7     3     8    1
     8     4     5   ar
     9     4    14    1
    10     5     6   ar
    11     5     9    1
    12     6    10    1
    13    11    12    2
    14    11    13    2
    15    14    15    1
    16    14    23    1
    17    14    33    1
    18    15    16    1
    19    15    17    1
    20    15    18    1
    21    18    19    1
    22    18    25    1
    23    18    31    1
    24    19    20    1
    25    19    21    1
    26    19    22    1
    27    23    24    1
    28    25    26    1
    29    25    27    1
    30    27    28    1
    31    27    29    1
    32    27    30    1
    33    31    32    1
    34    33    37    2
    35    33    38    1
    36    34    35    1
    37    34    36    1
    38    34    38    1
    39    34    39    1
    40    39    40    1
    41    39    41    1
    42    39    42    1
@<TRIPOS>SUBSTRUCTURE
     1 1           1 GROUP             0 ****  ****    0  
@<TRIPOS>MOLECULE
Molecule Name_00184
    42    42     1     0     0
SMALL
NO_CHARGES
****
Generated from the CSD

@<TRIPOS>ATOM
     1 C1       3.4134  -0.4187  -0.0964   C.ar      1 1      0.0000
     2 C2       2.7275   0.3324  -1.0248   C.ar      1 1      0.0000
     3 C3       1.3588   0.4710  -0.8824   C.ar      1 1      0.0000
     4 C4       0.6742  -0.1304   0.1679   C.ar      1 1      0.0000
     5 C5       1.4068  -0.8768   1.0842   C.ar      1 1      0.0000
     6 C6       2.7760  -1.0285   0.9611   C.ar      1 1      0.0000
     7 H7       3.2495   0.8054  -1.8500   H         1 1      0.0000
     8 H8       0.8124   1.0634  -1.6082   H         1 1      0.0000
     9 H9       0.8977  -1.3521   1.9159   H         1 1      0.0000
    10 H10      3.3357  -1.6151   1.6821   H         1 1      0.0000
    11 N11      4.8662  -0.5737  -0.2381   N.pl3     1 1      0.0000
    12 O12      5.4601  -1.2428   0.5931   O.2       1 1      0.0000
    13 O13      5.4168  -0.0268  -1.1810   O.2       1 1      0.0000
    14 CL3     -0.8410   0.0184   0.3127   C.3       1 1      0.0000
    15 CL1     -1.5803  -1.1332  -0.4259   C.3       1 1      0.0000
    16 H16     -1.5547  -0.9323  -1.5037   H         1 1      0.0000
    17 H17     -1.0207  -2.0626  -0.2627   H         1 1      0.0000
    18 CL      -3.0421  -1.3762  -0.0109   C.3       1 1      0.0000
    19 CL2     -3.8265  -0.0894  -0.1904   C.3       1 1      0.0000
    20 H20     -4.8906  -0.2627  -0.0439   H         1 1      0.0000
    21 H21     -3.5037   0.6623   0.5269   H         1 1      0.0000
    22 H22     -3.6833   0.3133  -1.1909   H         1 1      0.0000
    23 OL2     -1.1480   0.0118   1.7013   O.3       1 1      0.0000
    24 H24     -2.1128   0.1904   1.8254   H         1 1      0.0000
    25 N25     -3.6361  -2.3939  -0.8377   N.3       1 1      0.0000
    26 H26     -3.6060  -2.0537  -1.7988   H         1 1      0.0000
    27 C27     -3.0012  -3.7130  -0.8291   C.3       1 1      0.0000
    28 H28     -3.0012  -4.1345   0.1739   H         1 1      0.0000
    29 H29     -3.5310  -4.4002  -1.4856   H         1 1      0.0000
    30 H30     -1.9698  -3.6468  -1.1690   H         1 1      0.0000
    31 OL1     -3.0916  -1.7124   1.3705   O.3       1 1      0.0000
    32 H32     -4.0332  -1.8436   1.6432   H         1 1      0.0000
    33 CL4     -1.1724   1.3964  -0.2942   C.2       1 1      0.0000
    34 C34     -1.1593   3.7387   0.0799   C.3       1 1      0.0000
    35 H35     -0.5872   3.9487  -0.8322   H         1 1      0.0000
    36 H36     -2.2238   3.8505  -0.1606   H         1 1      0.0000
    37 OL3     -1.6322   1.5442  -1.3929   O.2       1 1      0.0000
    38 OL4     -0.8869   2.3840   0.5457   O.3       1 1      0.0000
    39 C39     -0.7752   4.6822   1.1536   C.3       1 1      0.0000
    40 H40      0.2821   4.5859   1.3917   H         1 1      0.0000
    41 H41     -0.9619   5.7098   0.8490   H         1 1      0.0000
    42 H42     -1.3456   4.4883   2.0596   H         1 1      0.0000
@<TRIPOS>BOND
     1     1     2   ar
     2     1     6   ar
     3     1    11    1
     4     2     3   ar
     5     2     7    1
     6     3     4   ar
     7     3     8    1
     8     4     5   ar
     9     4    14    1
    10     5     6   ar
    11     5     9    1
    12     6    10    1
    13    11    12    2
    14    11    13    2
    15    14    15    1
    16    14    23    1
    17    14    33    1
    18    15    16    1
    19    15    17    1
    20    15    18    1
    21    18    19    1
    22    18    25    1
    23    18    31    1
    24    19    20    1
    25    19    21    1
    26    19    22    1
    27    23    24    1
    28    25    26    1
    29    25    27    1
    30    27    28    1
    31    27    29    1
    32    27    30    1
    33    31    32    1
    34    33    37    2
    35    33    38    1
    36    34    35    1
    37    34    36    1
    38    34    38    1
    39    34    39    1
    40    39    40    1
    41    39    41    1
    42    39    42    1
@<TRIPOS>SUBSTRUCTURE
     1 1           1 GROUP             0 ****  ****    0  
@<TRIPOS>MOLECULE
Molecule Name_00185
    42    42     1     0     0
SMALL
NO_CHARGES
****
Generated from the CSD

@<TRIPOS>ATOM
     1 C1       3.5385  -0.3246  -0.2284   C.ar      1 1      0.0000
     2 C2       2.9831  -0.8921   0.8968   C.ar      1 1      0.0000
     3 C3       1.6066  -0.8832   1.0312   C.ar      1 1      0.0000
     4 C4       0.7868  -0.3155   0.0621   C.ar      1 1      0.0000
     5 C5       1.3897   0.2432  -1.0594   C.ar      1 1      0.0000
     6 C6       2.7641   0.2452  -1.2144   C.ar      1 1      0.0000
     7 H7       3.6117  -1.3367   1.6612   H         1 1      0.0000
     8 H8       1.1620  -1.3307   1.9134   H         1 1      0.0000
     9 H9       0.7726   0.6879  -1.8329   H         1 1      0.0000
    10 H10      3.2221   0.6859  -2.0937   H         1 1      0.0000
    11 N11      4.9985  -0.3272  -0.3812   N.pl3     1 1      0.0000
    12 O12      5.4757   0.1798  -1.3844   O.2       1 1      0.0000
    13 O13      5.6713  -0.8363   0.5016   O.2       1 1      0.0000
    14 CL3     -0.7340  -0.2997   0.2229   C.3       1 1      0.0000
    15 CL1     -1.4146  -1.1370  -0.8969   C.3       1 1      0.0000
    16 H16     -1.1571  -0.6986  -1.8686   H         1 1      0.0000
    17 H17     -0.9866  -2.1469  -0.8807   H         1 1      0.0000
    18 CL      -2.9458  -1.2653  -0.8116   C.3       1 1      0.0000
    19 CL2     -3.4473  -2.0127  -2.0336   C.3       1 1      0.0000
    20 H20     -4.5307  -2.1101  -2.0083   H         1 1      0.0000
    21 H21     -3.1755  -1.4863  -2.9461   H         1 1      0.0000
    22 H22     -3.0182  -3.0115  -2.0778   H         1 1      0.0000
    23 OL2     -1.0410  -0.8247   1.5084   O.3       1 1      0.0000
    24 H24     -1.9482  -0.5340   1.7740   H         1 1      0.0000
    25 N25     -3.3227  -2.0048   0.3645   N.3       1 1      0.0000
    26 H26     -2.4653  -2.2054   0.8793   H         1 1      0.0000
    27 C27     -4.2403  -1.3488   1.2977   C.3       1 1      0.0000
    28 H28     -5.2425  -1.2929   0.8780   H         1 1      0.0000
    29 H29     -4.2954  -1.8986   2.2349   H         1 1      0.0000
    30 H30     -3.9080  -0.3364   1.5177   H         1 1      0.0000
    31 OL1     -3.5310   0.0310  -0.8392   O.3       1 1      0.0000
    32 H32     -4.5097  -0.0526  -0.9539   H         1 1      0.0000
    33 CL4     -1.1333   1.1878   0.1515   C.2       1 1      0.0000
    34 C34     -1.8597   3.0672   1.4030   C.3       1 1      0.0000
    35 H35     -2.4310   3.3369   0.5062   H         1 1      0.0000
    36 H36     -2.5026   3.2441   2.2741   H         1 1      0.0000
    37 OL3     -1.1414   1.8243  -0.8659   O.2       1 1      0.0000
    38 OL4     -1.4625   1.6654   1.3455   O.3       1 1      0.0000
    39 C39     -0.6337   3.8912   1.4959   C.3       1 1      0.0000
    40 H40      0.0056   3.7303   0.6304   H         1 1      0.0000
    41 H41     -0.8827   4.9493   1.5414   H         1 1      0.0000
    42 H42     -0.0656   3.6380   2.3886   H         1 1      0.0000
@<TRIPOS>BOND
     1     1     2   ar
     2     1     6   ar
     3     1    11    1
     4     2     3   ar
     5     2     7    1
     6     3     4   ar
     7     3     8    1
     8     4     5   ar
     9     4    14    1
    10     5     6   ar
    11     5     9    1
    12     6    10    1
    13    11    12    2
    14    11    13    2
    15    14    15    1
    16    14    23    1
    17    14    33    1
    18    15    16    1
    19    15    17    1
    20    15    18    1
    21    18    19    1
    22    18    25    1
    23    18    31    1
    24    19    20    1
    25    19    21    1
    26    19    22    1
    27    23    24    1
    28    25    26    1
    29    25    27    1
    30    27    28    1
    31    27    29    1
    32    27    30    1
    33    31    32    1
    34    33    37    2
    35    33    38    1
    36    34    35    1
    37    34    36    1
    38    34    38    1
    39    34    39    1
    40    39    40    1
    41    39    41    1
    42    39    42    1
@<TRIPOS>SUBSTRUCTURE
     1 1           1 GROUP             0 ****  ****    0  
@<TRIPOS>MOLECULE
Molecule Name_00186
    42    42     1     0     0
SMALL
NO_CHARGES
****
Generated from the CSD

@<TRIPOS>ATOM
     1 C1       3.6421  -0.4638  -0.1982   C.ar      1 1      0.0000
     2 C2       3.0495  -1.0450   0.9007   C.ar      1 1      0.0000
     3 C3       1.6743  -0.9707   1.0272   C.ar      1 1      0.0000
     4 C4       0.8923  -0.3248   0.0761   C.ar      1 1      0.0000
     5 C5       1.5317   0.2450  -1.0193   C.ar      1 1      0.0000
     6 C6       2.9056   0.1824  -1.1659   C.ar      1 1      0.0000
     7 H7       3.6486  -1.5504   1.6510   H         1 1      0.0000
     8 H8       1.2005  -1.4285   1.8887   H         1 1      0.0000
     9 H9       0.9443   0.7502  -1.7786   H         1 1      0.0000
    10 H10      3.3924   0.6327  -2.0247   H         1 1      0.0000
    11 N11      5.1012  -0.5354  -0.3424   N.pl3     1 1      0.0000
    12 O12      5.6116  -0.0153  -1.3223   O.2       1 1      0.0000
    13 O13      5.7401  -1.1120   0.5239   O.2       1 1      0.0000
    14 CL3     -0.6270  -0.2372   0.2283   C.3       1 1      0.0000
    15 CL1     -1.3406  -0.9948  -0.9272   C.3       1 1      0.0000
    16 H16     -1.0534  -0.5331  -1.8796   H         1 1      0.0000
    17 H17     -0.9648  -2.0252  -0.9477   H         1 1      0.0000
    18 CL      -2.8769  -1.0476  -0.8560   C.3       1 1      0.0000
    19 CL2     -3.4063  -1.7206  -2.1090   C.3       1 1      0.0000
    20 H20     -4.4934  -1.7632  -2.0940   H         1 1      0.0000
    21 H21     -3.1008  -1.1741  -2.9988   H         1 1      0.0000
    22 H22     -3.0284  -2.7377  -2.1896   H         1 1      0.0000
    23 OL2     -0.9705  -0.7949   1.4907   O.3       1 1      0.0000
    24 H24     -1.8638  -0.4686   1.7620   H         1 1      0.0000
    25 N25     -3.3004  -1.8115   0.2882   N.3       1 1      0.0000
    26 H26     -2.4585  -2.0755   0.7998   H         1 1      0.0000
    27 C27     -4.1906  -1.1458   1.2407   C.3       1 1      0.0000
    28 H28     -5.1854  -1.0224   0.8176   H         1 1      0.0000
    29 H29     -4.2812  -1.7277   2.1555   H         1 1      0.0000
    30 H30     -3.8089  -0.1610   1.5019   H         1 1      0.0000
    31 OL1     -3.3950   0.2772  -0.8367   O.3       1 1      0.0000
    32 H32     -4.3758   0.2484  -0.9603   H         1 1      0.0000
    33 CL4     -0.9493   1.2704   0.2125   C.2       1 1      0.0000
    34 C34     -1.5887   3.1350   1.5318   C.3       1 1      0.0000
    35 H35     -1.4035   3.4891   2.5534   H         1 1      0.0000
    36 H36     -0.9567   3.7231   0.8550   H         1 1      0.0000
    37 OL3     -0.9169   1.9453  -0.7795   O.2       1 1      0.0000
    38 OL4     -1.2631   1.7179   1.4222   O.3       1 1      0.0000
    39 C39     -3.0158   3.3095   1.1804   C.3       1 1      0.0000
    40 H40     -3.6514   2.7380   1.8535   H         1 1      0.0000
    41 H41     -3.3046   4.3563   1.2487   H         1 1      0.0000
    42 H42     -3.2071   2.9708   0.1644   H         1 1      0.0000
@<TRIPOS>BOND
     1     1     2   ar
     2     1     6   ar
     3     1    11    1
     4     2     3   ar
     5     2     7    1
     6     3     4   ar
     7     3     8    1
     8     4     5   ar
     9     4    14    1
    10     5     6   ar
    11     5     9    1
    12     6    10    1
    13    11    12    2
    14    11    13    2
    15    14    15    1
    16    14    23    1
    17    14    33    1
    18    15    16    1
    19    15    17    1
    20    15    18    1
    21    18    19    1
    22    18    25    1
    23    18    31    1
    24    19    20    1
    25    19    21    1
    26    19    22    1
    27    23    24    1
    28    25    26    1
    29    25    27    1
    30    27    28    1
    31    27    29    1
    32    27    30    1
    33    31    32    1
    34    33    37    2
    35    33    38    1
    36    34    35    1
    37    34    36    1
    38    34    38    1
    39    34    39    1
    40    39    40    1
    41    39    41    1
    42    39    42    1
@<TRIPOS>SUBSTRUCTURE
     1 1           1 GROUP             0 ****  ****    0  
@<TRIPOS>MOLECULE
Molecule Name_00187
    42    42     1     0     0
SMALL
NO_CHARGES
****
Generated from the CSD

@<TRIPOS>ATOM
     1 C1       3.5470  -0.3187  -0.2296   C.ar      1 1      0.0000
     2 C2       3.0111  -0.8940   0.9011   C.ar      1 1      0.0000
     3 C3       1.6356  -0.9143   1.0444   C.ar      1 1      0.0000
     4 C4       0.7977  -0.3679   0.0786   C.ar      1 1      0.0000
     5 C5       1.3812   0.1995  -1.0487   C.ar      1 1      0.0000
     6 C6       2.7542   0.2306  -1.2125   C.ar      1 1      0.0000
     7 H7       3.6541  -1.3222   1.6630   H         1 1      0.0000
     8 H8       1.2065  -1.3681   1.9310   H         1 1      0.0000
     9 H9       0.7497   0.6281  -1.8197   H         1 1      0.0000
    10 H10      3.1970   0.6780  -2.0963   H         1 1      0.0000
    11 N11      5.0057  -0.2904  -0.3918   N.pl3     1 1      0.0000
    12 O12      5.4654   0.2231  -1.3998   O.2       1 1      0.0000
    13 O13      5.6949  -0.7817   0.4883   O.2       1 1      0.0000
    14 CL3     -0.7220  -0.3843   0.2492   C.3       1 1      0.0000
    15 CL1     -1.3914  -1.2425  -0.8616   C.3       1 1      0.0000
    16 H16     -1.1458  -0.8067  -1.8376   H         1 1      0.0000
    17 H17     -0.9447  -2.2442  -0.8396   H         1 1      0.0000
    18 CL      -2.9196  -1.3985  -0.7692   C.3       1 1      0.0000
    19 CL2     -3.2518  -2.3327   0.3798   C.3       1 1      0.0000
    20 H20     -4.3166  -2.5552   0.4005   H         1 1      0.0000
    21 H21     -2.7111  -3.2718   0.2820   H         1 1      0.0000
    22 H22     -2.9808  -1.8834   1.3330   H         1 1      0.0000
    23 OL2     -1.0093  -0.9087   1.5395   O.3       1 1      0.0000
    24 H24     -1.8394  -0.4962   1.8846   H         1 1      0.0000
    25 N25     -3.5399  -0.1242  -0.5175   N.3       1 1      0.0000
    26 H26     -4.1470   0.0751  -1.3125   H         1 1      0.0000
    27 C27     -4.3610  -0.0102   0.6890   C.3       1 1      0.0000
    28 H28     -3.7522  -0.1303   1.5827   H         1 1      0.0000
    29 H29     -4.8439   0.9636   0.7363   H         1 1      0.0000
    30 H30     -5.1360  -0.7737   0.7017   H         1 1      0.0000
    31 OL1     -3.4058  -2.0045  -1.9609   O.3       1 1      0.0000
    32 H32     -4.3845  -2.1280  -1.8910   H         1 1      0.0000
    33 CL4     -1.1542   1.0937   0.1723   C.2       1 1      0.0000
    34 C34     -1.8884   2.9713   1.4220   C.3       1 1      0.0000
    35 H35     -2.4874   3.2193   0.5371   H         1 1      0.0000
    36 H36     -2.5130   3.1444   2.3071   H         1 1      0.0000
    37 OL3     -1.2010   1.7187  -0.8512   O.2       1 1      0.0000
    38 OL4     -1.4634   1.5774   1.3692   O.3       1 1      0.0000
    39 C39     -0.6781   3.8214   1.4754   C.3       1 1      0.0000
    40 H40     -0.0573   3.6644   0.5958   H         1 1      0.0000
    41 H41     -0.9480   4.8746   1.5161   H         1 1      0.0000
    42 H42     -0.0827   3.5899   2.3562   H         1 1      0.0000
@<TRIPOS>BOND
     1     1     2   ar
     2     1     6   ar
     3     1    11    1
     4     2     3   ar
     5     2     7    1
     6     3     4   ar
     7     3     8    1
     8     4     5   ar
     9     4    14    1
    10     5     6   ar
    11     5     9    1
    12     6    10    1
    13    11    12    2
    14    11    13    2
    15    14    15    1
    16    14    23    1
    17    14    33    1
    18    15    16    1
    19    15    17    1
    20    15    18    1
    21    18    19    1
    22    18    25    1
    23    18    31    1
    24    19    20    1
    25    19    21    1
    26    19    22    1
    27    23    24    1
    28    25    26    1
    29    25    27    1
    30    27    28    1
    31    27    29    1
    32    27    30    1
    33    31    32    1
    34    33    37    2
    35    33    38    1
    36    34    35    1
    37    34    36    1
    38    34    38    1
    39    34    39    1
    40    39    40    1
    41    39    41    1
    42    39    42    1
@<TRIPOS>SUBSTRUCTURE
     1 1           1 GROUP             0 ****  ****    0  
@<TRIPOS>MOLECULE
Molecule Name_00188
    42    42     1     0     0
SMALL
NO_CHARGES
****
Generated from the CSD

@<TRIPOS>ATOM
     1 C1       3.6498  -0.4623  -0.2022   C.ar      1 1      0.0000
     2 C2       3.0738  -1.0582   0.8977   C.ar      1 1      0.0000
     3 C3       1.6980  -1.0109   1.0309   C.ar      1 1      0.0000
     4 C4       0.8991  -0.3775   0.0855   C.ar      1 1      0.0000
     5 C5       1.5222   0.2079  -1.0111   C.ar      1 1      0.0000
     6 C6       2.8963   0.1724  -1.1644   C.ar      1 1      0.0000
     7 H7       3.6861  -1.5541   1.6436   H         1 1      0.0000
     8 H8       1.2373  -1.4804   1.8932   H         1 1      0.0000
     9 H9       0.9214   0.7039  -1.7661   H         1 1      0.0000
    10 H10      3.3702   0.6346  -2.0241   H         1 1      0.0000
    11 N11      5.1092  -0.5052  -0.3535   N.pl3     1 1      0.0000
    12 O12      5.6048   0.0277  -1.3341   O.2       1 1      0.0000
    13 O13      5.7634  -1.0719   0.5080   O.2       1 1      0.0000
    14 CL3     -0.6208  -0.3198   0.2451   C.3       1 1      0.0000
    15 CL1     -1.3250  -1.0900  -0.9078   C.3       1 1      0.0000
    16 H16     -1.0486  -0.6240  -1.8613   H         1 1      0.0000
    17 H17     -0.9319  -2.1139  -0.9289   H         1 1      0.0000
    18 CL      -2.8600  -1.1687  -0.8318   C.3       1 1      0.0000
    19 CL2     -3.2507  -2.1354   0.2710   C.3       1 1      0.0000
    20 H20     -4.3258  -2.3024   0.2746   H         1 1      0.0000
    21 H21     -2.7590  -3.0962   0.1338   H         1 1      0.0000
    22 H22     -2.9652  -1.7447   1.2455   H         1 1      0.0000
    23 OL2     -0.9472  -0.8854   1.5085   O.3       1 1      0.0000
    24 H24     -1.7574  -0.4452   1.8662   H         1 1      0.0000
    25 N25     -3.4144   0.1239  -0.5256   N.3       1 1      0.0000
    26 H26     -4.0028   0.3915  -1.3146   H         1 1      0.0000
    27 C27     -4.2395   0.2260   0.6793   C.3       1 1      0.0000
    28 H28     -3.6460   0.0336   1.5706   H         1 1      0.0000
    29 H29     -4.6715   1.2206   0.7678   H         1 1      0.0000
    30 H30     -5.0533  -0.4957   0.6517   H         1 1      0.0000
    31 OL1     -3.3674  -1.6932  -2.0530   O.3       1 1      0.0000
    32 H32     -4.3519  -1.7677  -1.9948   H         1 1      0.0000
    33 CL4     -0.9727   1.1812   0.2325   C.2       1 1      0.0000
    34 C34     -1.6152   3.0379   1.5615   C.3       1 1      0.0000
    35 H35     -1.4124   3.3987   2.5774   H         1 1      0.0000
    36 H36     -1.0105   3.6355   0.8682   H         1 1      0.0000
    37 OL3     -0.9772   1.8532  -0.7619   O.2       1 1      0.0000
    38 OL4     -1.2660   1.6268   1.4481   O.3       1 1      0.0000
    39 C39     -3.0533   3.1848   1.2436   C.3       1 1      0.0000
    40 H40     -3.6601   2.5787   1.9131   H         1 1      0.0000
    41 H41     -3.3672   4.2214   1.3468   H         1 1      0.0000
    42 H42     -3.2568   2.8691   0.2225   H         1 1      0.0000
@<TRIPOS>BOND
     1     1     2   ar
     2     1     6   ar
     3     1    11    1
     4     2     3   ar
     5     2     7    1
     6     3     4   ar
     7     3     8    1
     8     4     5   ar
     9     4    14    1
    10     5     6   ar
    11     5     9    1
    12     6    10    1
    13    11    12    2
    14    11    13    2
    15    14    15    1
    16    14    23    1
    17    14    33    1
    18    15    16    1
    19    15    17    1
    20    15    18    1
    21    18    19    1
    22    18    25    1
    23    18    31    1
    24    19    20    1
    25    19    21    1
    26    19    22    1
    27    23    24    1
    28    25    26    1
    29    25    27    1
    30    27    28    1
    31    27    29    1
    32    27    30    1
    33    31    32    1
    34    33    37    2
    35    33    38    1
    36    34    35    1
    37    34    36    1
    38    34    38    1
    39    34    39    1
    40    39    40    1
    41    39    41    1
    42    39    42    1
@<TRIPOS>SUBSTRUCTURE
     1 1           1 GROUP             0 ****  ****    0  
@<TRIPOS>MOLECULE
Molecule Name_00189
    42    42     1     0     0
SMALL
NO_CHARGES
****
Generated from the CSD

@<TRIPOS>ATOM
     1 C1       2.9106  -0.7267  -0.2610   C.ar      1 1      0.0000
     2 C2       2.1833  -0.4292  -1.3920   C.ar      1 1      0.0000
     3 C3       0.8665  -0.0321  -1.2461   C.ar      1 1      0.0000
     4 C4       0.2737   0.0675   0.0077   C.ar      1 1      0.0000
     5 C5       1.0458  -0.2389   1.1227   C.ar      1 1      0.0000
     6 C6       2.3643  -0.6380   1.0001   C.ar      1 1      0.0000
     7 H7       2.6336  -0.5047  -2.3763   H         1 1      0.0000
     8 H8       0.2885   0.2064  -2.1322   H         1 1      0.0000
     9 H9       0.6089  -0.1642   2.1129   H         1 1      0.0000
    10 H10      2.9554  -0.8759   1.8782   H         1 1      0.0000
    11 N11      4.3087  -1.1505  -0.4038   N.pl3     1 1      0.0000
    12 O12      4.9402  -1.4107   0.6085   O.2       1 1      0.0000
    13 O13      4.7786  -1.2240  -1.5285   O.2       1 1      0.0000
    14 CL3     -1.1862   0.4969   0.1605   C.3       1 1      0.0000
    15 CL1     -2.0672  -0.1424  -0.9502   C.3       1 1      0.0000
    16 H16     -2.9813   0.4535  -1.0594   H         1 1      0.0000
    17 H17     -1.5266  -0.0721  -1.9021   H         1 1      0.0000
    18 CL      -2.4677  -1.6126  -0.7352   C.3       1 1      0.0000
    19 CL2     -3.4166  -2.0327  -1.8427   C.3       1 1      0.0000
    20 H20     -3.7279  -3.0670  -1.7122   H         1 1      0.0000
    21 H21     -4.3076  -1.4082  -1.8447   H         1 1      0.0000
    22 H22     -2.9378  -1.9430  -2.8156   H         1 1      0.0000
    23 OL2     -1.6250   0.0949   1.4521   O.3       1 1      0.0000
    24 H24     -2.5568   0.3956   1.5910   H         1 1      0.0000
    25 N25     -1.3059  -2.4612  -0.7810   N.3       1 1      0.0000
    26 H26     -0.6115  -1.9868  -1.3582   H         1 1      0.0000
    27 C27     -0.6608  -2.7760   0.4948   C.3       1 1      0.0000
    28 H28     -0.8644  -3.8042   0.7866   H         1 1      0.0000
    29 H29      0.4176  -2.6514   0.4229   H         1 1      0.0000
    30 H30     -1.0258  -2.1214   1.2835   H         1 1      0.0000
    31 OL1     -3.1723  -1.7356   0.4945   O.3       1 1      0.0000
    32 H32     -3.4520  -2.6758   0.6204   H         1 1      0.0000
    33 CL4     -1.1678   2.0356   0.0649   C.2       1 1      0.0000
    34 C34     -1.0480   4.0581   1.2984   C.3       1 1      0.0000
    35 H35     -0.1944   4.4367   0.7228   H         1 1      0.0000
    36 H36     -1.9615   4.4653   0.8476   H         1 1      0.0000
    37 OL3     -1.2313   2.6367  -0.9720   O.2       1 1      0.0000
    38 OL4     -1.0741   2.6006   1.2625   O.3       1 1      0.0000
    39 C39     -0.9413   4.4834   2.7120   C.3       1 1      0.0000
    40 H40     -0.0323   4.0928   3.1647   H         1 1      0.0000
    41 H41     -0.9185   5.5685   2.7876   H         1 1      0.0000
    42 H42     -1.7898   4.1213   3.2888   H         1 1      0.0000
@<TRIPOS>BOND
     1     1     2   ar
     2     1     6   ar
     3     1    11    1
     4     2     3   ar
     5     2     7    1
     6     3     4   ar
     7     3     8    1
     8     4     5   ar
     9     4    14    1
    10     5     6   ar
    11     5     9    1
    12     6    10    1
    13    11    12    2
    14    11    13    2
    15    14    15    1
    16    14    23    1
    17    14    33    1
    18    15    16    1
    19    15    17    1
    20    15    18    1
    21    18    19    1
    22    18    25    1
    23    18    31    1
    24    19    20    1
    25    19    21    1
    26    19    22    1
    27    23    24    1
    28    25    26    1
    29    25    27    1
    30    27    28    1
    31    27    29    1
    32    27    30    1
    33    31    32    1
    34    33    37    2
    35    33    38    1
    36    34    35    1
    37    34    36    1
    38    34    38    1
    39    34    39    1
    40    39    40    1
    41    39    41    1
    42    39    42    1
@<TRIPOS>SUBSTRUCTURE
     1 1           1 GROUP             0 ****  ****    0  
@<TRIPOS>MOLECULE
Molecule Name_00190
    42    42     1     0     0
SMALL
NO_CHARGES
****
Generated from the CSD

@<TRIPOS>ATOM
     1 C1       3.4831  -0.2520  -0.2682   C.ar      1 1      0.0000
     2 C2       2.9446   0.3733   0.8344   C.ar      1 1      0.0000
     3 C3       1.5703   0.3711   0.9905   C.ar      1 1      0.0000
     4 C4       0.7359  -0.2422   0.0625   C.ar      1 1      0.0000
     5 C5       1.3224  -0.8647  -1.0338   C.ar      1 1      0.0000
     6 C6       2.6942  -0.8747  -1.2097   C.ar      1 1      0.0000
     7 H7       3.5845   0.8570   1.5649   H         1 1      0.0000
     8 H8       1.1394   0.8592   1.8578   H         1 1      0.0000
     9 H9       0.6942  -1.3552  -1.7699   H         1 1      0.0000
    10 H10      3.1391  -1.3626  -2.0706   H         1 1      0.0000
    11 N11      4.9403  -0.2550  -0.4448   N.pl3     1 1      0.0000
    12 O12      5.4024  -0.8136  -1.4275   O.2       1 1      0.0000
    13 O13      5.6261   0.3012   0.3987   O.2       1 1      0.0000
    14 CL3     -0.7835  -0.2311   0.2362   C.3       1 1      0.0000
    15 CL1     -1.4825  -0.8849  -0.9894   C.3       1 1      0.0000
    16 H16     -1.3522  -0.2291  -1.8588   H         1 1      0.0000
    17 H17     -0.9657  -1.8246  -1.2202   H         1 1      0.0000
    18 CL      -2.9824  -1.1905  -0.8310   C.3       1 1      0.0000
    19 CL2     -3.5296  -1.6790  -2.1597   C.3       1 1      0.0000
    20 H20     -4.5935  -1.8933  -2.0832   H         1 1      0.0000
    21 H21     -3.3900  -0.9275  -2.9340   H         1 1      0.0000
    22 H22     -3.0224  -2.5885  -2.4747   H         1 1      0.0000
    23 OL2     -1.0897  -0.9365   1.4325   O.3       1 1      0.0000
    24 H24     -1.8057  -0.4601   1.9209   H         1 1      0.0000
    25 N25     -3.1834  -2.2207   0.1539   N.3       1 1      0.0000
    26 H26     -2.7882  -1.8784   1.0297   H         1 1      0.0000
    27 C27     -4.5655  -2.6154   0.4319   C.3       1 1      0.0000
    28 H28     -5.0471  -2.9929  -0.4677   H         1 1      0.0000
    29 H29     -4.5987  -3.3973   1.1877   H         1 1      0.0000
    30 H30     -5.1429  -1.7680   0.7953   H         1 1      0.0000
    31 OL1     -3.6766   0.0070  -0.5025   O.3       1 1      0.0000
    32 H32     -4.6461  -0.1801  -0.4460   H         1 1      0.0000
    33 CL4     -1.1628   1.2555   0.3888   C.2       1 1      0.0000
    34 C34     -1.2843   3.0858   1.8926   C.3       1 1      0.0000
    35 H35     -2.1750   3.3831   1.3256   H         1 1      0.0000
    36 H36     -1.5039   3.2283   2.9580   H         1 1      0.0000
    37 OL3     -1.5886   1.9271  -0.5102   O.2       1 1      0.0000
    38 OL4     -0.9599   1.6892   1.6269   O.3       1 1      0.0000
    39 C39     -0.1238   3.9134   1.4940   C.3       1 1      0.0000
    40 H40      0.0950   3.7867   0.4358   H         1 1      0.0000
    41 H41     -0.3216   4.9678   1.6753   H         1 1      0.0000
    42 H42      0.7624   3.6328   2.0593   H         1 1      0.0000
@<TRIPOS>BOND
     1     1     2   ar
     2     1     6   ar
     3     1    11    1
     4     2     3   ar
     5     2     7    1
     6     3     4   ar
     7     3     8    1
     8     4     5   ar
     9     4    14    1
    10     5     6   ar
    11     5     9    1
    12     6    10    1
    13    11    12    2
    14    11    13    2
    15    14    15    1
    16    14    23    1
    17    14    33    1
    18    15    16    1
    19    15    17    1
    20    15    18    1
    21    18    19    1
    22    18    25    1
    23    18    31    1
    24    19    20    1
    25    19    21    1
    26    19    22    1
    27    23    24    1
    28    25    26    1
    29    25    27    1
    30    27    28    1
    31    27    29    1
    32    27    30    1
    33    31    32    1
    34    33    37    2
    35    33    38    1
    36    34    35    1
    37    34    36    1
    38    34    38    1
    39    34    39    1
    40    39    40    1
    41    39    41    1
    42    39    42    1
@<TRIPOS>SUBSTRUCTURE
     1 1           1 GROUP             0 ****  ****    0  
@<TRIPOS>MOLECULE
Molecule Name_00191
    42    42     1     0     0
SMALL
NO_CHARGES
****
Generated from the CSD

@<TRIPOS>ATOM
     1 C1       3.3851  -0.3430  -0.2665   C.ar      1 1      0.0000
     2 C2       2.8777   0.3337   0.8203   C.ar      1 1      0.0000
     3 C3       1.5055   0.3853   0.9855   C.ar      1 1      0.0000
     4 C4       0.6427  -0.2251   0.0821   C.ar      1 1      0.0000
     5 C5       1.1981  -0.9006  -0.9989   C.ar      1 1      0.0000
     6 C6       2.5672  -0.9649  -1.1836   C.ar      1 1      0.0000
     7 H7       3.5401   0.8159   1.5316   H         1 1      0.0000
     8 H8       1.0989   0.9142   1.8406   H         1 1      0.0000
     9 H9       0.5472  -1.3900  -1.7157   H         1 1      0.0000
    10 H10      2.9879  -1.4939  -2.0324   H         1 1      0.0000
    11 N11      4.8399  -0.4034  -0.4528   N.pl3     1 1      0.0000
    12 O12      5.2742  -1.0072  -1.4213   O.2       1 1      0.0000
    13 O13      5.5515   0.1528   0.3690   O.2       1 1      0.0000
    14 CL3     -0.8740  -0.1545   0.2655   C.3       1 1      0.0000
    15 CL1     -1.6056  -0.8006  -0.9452   C.3       1 1      0.0000
    16 H16     -1.4449  -0.1713  -1.8288   H         1 1      0.0000
    17 H17     -1.1354  -1.7692  -1.1552   H         1 1      0.0000
    18 CL      -3.1183  -1.0295  -0.7795   C.3       1 1      0.0000
    19 CL2     -3.6817  -1.5672  -2.0821   C.3       1 1      0.0000
    20 H20     -4.7518  -1.7443  -1.9956   H         1 1      0.0000
    21 H21     -3.5196  -0.8605  -2.8933   H         1 1      0.0000
    22 H22     -3.2034  -2.5068  -2.3505   H         1 1      0.0000
    23 OL2     -1.1978  -0.8294   1.4747   O.3       1 1      0.0000
    24 H24     -2.1709  -0.7623   1.6382   H         1 1      0.0000
    25 N25     -3.3694  -1.9925   0.2604   N.3       1 1      0.0000
    26 H26     -4.3815  -2.0945   0.3357   H         1 1      0.0000
    27 C27     -2.8155  -3.3345   0.0728   C.3       1 1      0.0000
    28 H28     -1.7317  -3.2957  -0.0147   H         1 1      0.0000
    29 H29     -3.0647  -3.9759   0.9156   H         1 1      0.0000
    30 H30     -3.2123  -3.7927  -0.8307   H         1 1      0.0000
    31 OL1     -3.7593   0.2145  -0.5233   O.3       1 1      0.0000
    32 H32     -4.7345   0.0711  -0.4421   H         1 1      0.0000
    33 CL4     -1.1965   1.3474   0.3972   C.2       1 1      0.0000
    34 C34     -1.2688   3.1969   1.8806   C.3       1 1      0.0000
    35 H35     -2.1382   3.5230   1.2965   H         1 1      0.0000
    36 H36     -1.4991   3.3592   2.9408   H         1 1      0.0000
    37 OL3     -1.5814   2.0257  -0.5151   O.2       1 1      0.0000
    38 OL4     -0.9959   1.7859   1.6339   O.3       1 1      0.0000
    39 C39     -0.0705   3.9738   1.4923   C.3       1 1      0.0000
    40 H40      0.1595   3.8274   0.4390   H         1 1      0.0000
    41 H41     -0.2292   5.0371   1.6599   H         1 1      0.0000
    42 H42      0.7951   3.6645   2.0744   H         1 1      0.0000
@<TRIPOS>BOND
     1     1     2   ar
     2     1     6   ar
     3     1    11    1
     4     2     3   ar
     5     2     7    1
     6     3     4   ar
     7     3     8    1
     8     4     5   ar
     9     4    14    1
    10     5     6   ar
    11     5     9    1
    12     6    10    1
    13    11    12    2
    14    11    13    2
    15    14    15    1
    16    14    23    1
    17    14    33    1
    18    15    16    1
    19    15    17    1
    20    15    18    1
    21    18    19    1
    22    18    25    1
    23    18    31    1
    24    19    20    1
    25    19    21    1
    26    19    22    1
    27    23    24    1
    28    25    26    1
    29    25    27    1
    30    27    28    1
    31    27    29    1
    32    27    30    1
    33    31    32    1
    34    33    37    2
    35    33    38    1
    36    34    35    1
    37    34    36    1
    38    34    38    1
    39    34    39    1
    40    39    40    1
    41    39    41    1
    42    39    42    1
@<TRIPOS>SUBSTRUCTURE
     1 1           1 GROUP             0 ****  ****    0  
@<TRIPOS>MOLECULE
Molecule Name_00192
    42    42     1     0     0
SMALL
NO_CHARGES
****
Generated from the CSD

@<TRIPOS>ATOM
     1 C1       3.5188  -0.2183  -0.2937   C.ar      1 1      0.0000
     2 C2       2.9663   0.3822   0.8157   C.ar      1 1      0.0000
     3 C3       1.5953   0.3201   0.9874   C.ar      1 1      0.0000
     4 C4       0.7778  -0.3282   0.0682   C.ar      1 1      0.0000
     5 C5       1.3782  -0.9238  -1.0354   C.ar      1 1      0.0000
     6 C6       2.7470  -0.8741  -1.2269   C.ar      1 1      0.0000
     7 H7       3.5929   0.8928   1.5394   H         1 1      0.0000
     8 H8       1.1535   0.7885   1.8601   H         1 1      0.0000
     9 H9       0.7636  -1.4406  -1.7649   H         1 1      0.0000
    10 H10      3.2029  -1.3416  -2.0934   H         1 1      0.0000
    11 N11      4.9727  -0.1578  -0.4869   N.pl3     1 1      0.0000
    12 O12      5.4474  -0.6950  -1.4755   O.2       1 1      0.0000
    13 O13      5.6433   0.4271   0.3494   O.2       1 1      0.0000
    14 CL3     -0.7386  -0.3833   0.2592   C.3       1 1      0.0000
    15 CL1     -1.4242  -1.0475  -0.9684   C.3       1 1      0.0000
    16 H16     -1.3201  -0.3800  -1.8323   H         1 1      0.0000
    17 H17     -0.8796  -1.9684  -1.2110   H         1 1      0.0000
    18 CL      -2.9128  -1.4017  -0.8039   C.3       1 1      0.0000
    19 CL2     -3.0490  -2.4841   0.2512   C.3       1 1      0.0000
    20 H20     -3.8881  -3.1389   0.0259   H         1 1      0.0000
    21 H21     -2.1479  -3.0920   0.2987   H         1 1      0.0000
    22 H22     -3.2147  -2.0465   1.2334   H         1 1      0.0000
    23 OL2     -1.0008  -1.1186   1.4479   O.3       1 1      0.0000
    24 H24     -1.8162  -0.7638   1.8807   H         1 1      0.0000
    25 N25     -3.6589  -0.2477  -0.3755   N.3       1 1      0.0000
    26 H26     -3.5326   0.4714  -1.0877   H         1 1      0.0000
    27 C27     -5.1008  -0.4189  -0.1892   C.3       1 1      0.0000
    28 H28     -5.3051  -1.1774   0.5636   H         1 1      0.0000
    29 H29     -5.5611   0.5124   0.1343   H         1 1      0.0000
    30 H30     -5.5759  -0.7269  -1.1183   H         1 1      0.0000
    31 OL1     -3.4089  -1.9369  -2.0251   O.3       1 1      0.0000
    32 H32     -4.3525  -2.2081  -1.9057   H         1 1      0.0000
    33 CL4     -1.1777   1.0837   0.4388   C.2       1 1      0.0000
    34 C34     -1.3870   2.8750   1.9796   C.3       1 1      0.0000
    35 H35     -2.2827   3.1493   1.4087   H         1 1      0.0000
    36 H36     -1.6233   2.9858   3.0451   H         1 1      0.0000
    37 OL3     -1.6201   1.7573  -0.4505   O.2       1 1      0.0000
    38 OL4     -1.0051   1.4982   1.6880   O.3       1 1      0.0000
    39 C39     -0.2559   3.7557   1.6118   C.3       1 1      0.0000
    40 H40     -0.0212   3.6605   0.5537   H         1 1      0.0000
    41 H41     -0.4970   4.7974   1.8130   H         1 1      0.0000
    42 H42      0.6347   3.4978   2.1810   H         1 1      0.0000
@<TRIPOS>BOND
     1     1     2   ar
     2     1     6   ar
     3     1    11    1
     4     2     3   ar
     5     2     7    1
     6     3     4   ar
     7     3     8    1
     8     4     5   ar
     9     4    14    1
    10     5     6   ar
    11     5     9    1
    12     6    10    1
    13    11    12    2
    14    11    13    2
    15    14    15    1
    16    14    23    1
    17    14    33    1
    18    15    16    1
    19    15    17    1
    20    15    18    1
    21    18    19    1
    22    18    25    1
    23    18    31    1
    24    19    20    1
    25    19    21    1
    26    19    22    1
    27    23    24    1
    28    25    26    1
    29    25    27    1
    30    27    28    1
    31    27    29    1
    32    27    30    1
    33    31    32    1
    34    33    37    2
    35    33    38    1
    36    34    35    1
    37    34    36    1
    38    34    38    1
    39    34    39    1
    40    39    40    1
    41    39    41    1
    42    39    42    1
@<TRIPOS>SUBSTRUCTURE
     1 1           1 GROUP             0 ****  ****    0  
@<TRIPOS>MOLECULE
Molecule Name_00193
    42    42     1     0     0
SMALL
NO_CHARGES
****
Generated from the CSD

@<TRIPOS>ATOM
     1 C1       3.6302  -0.4346  -0.1470   C.ar      1 1      0.0000
     2 C2       2.8087  -0.7265  -1.2131   C.ar      1 1      0.0000
     3 C3       1.4405  -0.6183  -1.0427   C.ar      1 1      0.0000
     4 C4       0.8896  -0.2273   0.1726   C.ar      1 1      0.0000
     5 C5       1.7560   0.0612   1.2211   C.ar      1 1      0.0000
     6 C6       3.1273  -0.0402   1.0729   C.ar      1 1      0.0000
     7 H7       3.2259  -1.0345  -2.1662   H         1 1      0.0000
     8 H8       0.7876  -0.8440  -1.8788   H         1 1      0.0000
     9 H9       1.3521   0.3737   2.1783   H         1 1      0.0000
    10 H10      3.7925   0.1862   1.8997   H         1 1      0.0000
    11 N11      5.0840  -0.5471  -0.3158   N.pl3     1 1      0.0000
    12 O12      5.7989  -0.2849   0.6388   O.2       1 1      0.0000
    13 O13      5.5143  -0.8979  -1.4035   O.2       1 1      0.0000
    14 CL3     -0.6249  -0.1204   0.3566   C.3       1 1      0.0000
    15 CL1     -1.3590  -1.2077  -0.4784   C.3       1 1      0.0000
    16 H16     -1.0827  -1.0864  -1.5328   H         1 1      0.0000
    17 H17     -0.9893  -2.1916  -0.1644   H         1 1      0.0000
    18 CL      -2.8945  -1.2191  -0.3761   C.3       1 1      0.0000
    19 CL2     -3.4654  -0.2719  -1.4155   C.3       1 1      0.0000
    20 H20     -4.5430  -0.3960  -1.4998   H         1 1      0.0000
    21 H21     -3.2635   0.7629  -1.1466   H         1 1      0.0000
    22 H22     -3.0251  -0.4604  -2.3923   H         1 1      0.0000
    23 OL2     -0.9061  -0.2677   1.7429   O.3       1 1      0.0000
    24 H24     -1.8780  -0.1639   1.8939   H         1 1      0.0000
    25 N25     -3.4048  -2.5406  -0.6311   N.3       1 1      0.0000
    26 H26     -2.9784  -3.1634   0.0550   H         1 1      0.0000
    27 C27     -4.8540  -2.7245  -0.5357   C.3       1 1      0.0000
    28 H28     -5.3638  -2.1919  -1.3357   H         1 1      0.0000
    29 H29     -5.1147  -3.7782  -0.6101   H         1 1      0.0000
    30 H30     -5.2287  -2.3489   0.4141   H         1 1      0.0000
    31 OL1     -3.2866  -0.7310   0.9013   O.3       1 1      0.0000
    32 H32     -4.2731  -0.6740   0.9427   H         1 1      0.0000
    33 CL4     -0.9897   1.3040  -0.1071   C.2       1 1      0.0000
    34 C34     -1.6742   3.4623   0.5996   C.3       1 1      0.0000
    35 H35     -0.8456   3.9662   0.0869   H         1 1      0.0000
    36 H36     -2.5420   3.4800  -0.0713   H         1 1      0.0000
    37 OL3     -0.9817   1.6499  -1.2563   O.2       1 1      0.0000
    38 OL4     -1.3094   2.0865   0.9164   O.3       1 1      0.0000
    39 C39     -1.9921   4.1591   1.8661   C.3       1 1      0.0000
    40 H40     -1.1333   4.1560   2.5340   H         1 1      0.0000
    41 H41     -2.2710   5.1937   1.6775   H         1 1      0.0000
    42 H42     -2.8204   3.6724   2.3767   H         1 1      0.0000
@<TRIPOS>BOND
     1     1     2   ar
     2     1     6   ar
     3     1    11    1
     4     2     3   ar
     5     2     7    1
     6     3     4   ar
     7     3     8    1
     8     4     5   ar
     9     4    14    1
    10     5     6   ar
    11     5     9    1
    12     6    10    1
    13    11    12    2
    14    11    13    2
    15    14    15    1
    16    14    23    1
    17    14    33    1
    18    15    16    1
    19    15    17    1
    20    15    18    1
    21    18    19    1
    22    18    25    1
    23    18    31    1
    24    19    20    1
    25    19    21    1
    26    19    22    1
    27    23    24    1
    28    25    26    1
    29    25    27    1
    30    27    28    1
    31    27    29    1
    32    27    30    1
    33    31    32    1
    34    33    37    2
    35    33    38    1
    36    34    35    1
    37    34    36    1
    38    34    38    1
    39    34    39    1
    40    39    40    1
    41    39    41    1
    42    39    42    1
@<TRIPOS>SUBSTRUCTURE
     1 1           1 GROUP             0 ****  ****    0  
@<TRIPOS>MOLECULE
Molecule Name_00194
    42    42     1     0     0
SMALL
NO_CHARGES
****
Generated from the CSD

@<TRIPOS>ATOM
     1 C1       3.5360  -0.5208  -0.1298   C.ar      1 1      0.0000
     2 C2       2.6808  -0.8645  -1.1532   C.ar      1 1      0.0000
     3 C3       1.3205  -0.7065  -0.9596   C.ar      1 1      0.0000
     4 C4       0.8105  -0.2151   0.2370   C.ar      1 1      0.0000
     5 C5       1.7100   0.1227   1.2420   C.ar      1 1      0.0000
     6 C6       3.0741  -0.0270   1.0699   C.ar      1 1      0.0000
     7 H7       3.0660  -1.2508  -2.0911   H         1 1      0.0000
     8 H8       0.6413  -0.9725  -1.7621   H         1 1      0.0000
     9 H9       1.3385   0.5134   2.1834   H         1 1      0.0000
    10 H10      3.7653   0.2388   1.8629   H         1 1      0.0000
    11 N11      4.9817  -0.6854  -0.3236   N.pl3     1 1      0.0000
    12 O12      5.7268  -0.3762   0.5932   O.2       1 1      0.0000
    13 O13      5.3755  -1.1242  -1.3930   O.2       1 1      0.0000
    14 CL3     -0.6956  -0.0533   0.4477   C.3       1 1      0.0000
    15 CL1     -1.4784  -1.1768  -0.2894   C.3       1 1      0.0000
    16 H16     -1.2217  -1.1423  -1.3551   H         1 1      0.0000
    17 H17     -1.1302  -2.1454   0.0900   H         1 1      0.0000
    18 CL      -3.0110  -1.1343  -0.1566   C.3       1 1      0.0000
    19 CL2     -3.5755  -0.2338  -1.2401   C.3       1 1      0.0000
    20 H20     -4.6417  -0.4077  -1.3694   H         1 1      0.0000
    21 H21     -3.4315   0.8140  -0.9845   H         1 1      0.0000
    22 H22     -3.0835  -0.4210  -2.1923   H         1 1      0.0000
    23 OL2     -0.9458  -0.0930   1.8471   O.3       1 1      0.0000
    24 H24     -1.9106   0.0483   2.0126   H         1 1      0.0000
    25 N25     -3.5658  -2.4522  -0.3212   N.3       1 1      0.0000
    26 H26     -4.5763  -2.3673  -0.2106   H         1 1      0.0000
    27 C27     -3.3288  -3.1191  -1.6026   C.3       1 1      0.0000
    28 H28     -2.2627  -3.2411  -1.7825   H         1 1      0.0000
    29 H29     -3.7897  -4.1046  -1.6156   H         1 1      0.0000
    30 H30     -3.7466  -2.5387  -2.4226   H         1 1      0.0000
    31 OL1     -3.3610  -0.5586   1.0963   O.3       1 1      0.0000
    32 H32     -4.3459  -0.5079   1.1710   H         1 1      0.0000
    33 CL4     -1.0347   1.3438  -0.1093   C.2       1 1      0.0000
    34 C34     -1.6449   3.5654   0.4551   C.3       1 1      0.0000
    35 H35     -0.8165   4.0081  -0.1117   H         1 1      0.0000
    36 H36     -2.5284   3.5591  -0.1951   H         1 1      0.0000
    37 OL3     -1.0464   1.6061  -1.2804   O.2       1 1      0.0000
    38 OL4     -1.3082   2.2063   0.8620   O.3       1 1      0.0000
    39 C39     -1.9127   4.3598   1.6748   C.3       1 1      0.0000
    40 H40     -1.0378   4.3807   2.3213   H         1 1      0.0000
    41 H41     -2.1692   5.3856   1.4184   H         1 1      0.0000
    42 H42     -2.7403   3.9341   2.2383   H         1 1      0.0000
@<TRIPOS>BOND
     1     1     2   ar
     2     1     6   ar
     3     1    11    1
     4     2     3   ar
     5     2     7    1
     6     3     4   ar
     7     3     8    1
     8     4     5   ar
     9     4    14    1
    10     5     6   ar
    11     5     9    1
    12     6    10    1
    13    11    12    2
    14    11    13    2
    15    14    15    1
    16    14    23    1
    17    14    33    1
    18    15    16    1
    19    15    17    1
    20    15    18    1
    21    18    19    1
    22    18    25    1
    23    18    31    1
    24    19    20    1
    25    19    21    1
    26    19    22    1
    27    23    24    1
    28    25    26    1
    29    25    27    1
    30    27    28    1
    31    27    29    1
    32    27    30    1
    33    31    32    1
    34    33    37    2
    35    33    38    1
    36    34    35    1
    37    34    36    1
    38    34    38    1
    39    34    39    1
    40    39    40    1
    41    39    41    1
    42    39    42    1
@<TRIPOS>SUBSTRUCTURE
     1 1           1 GROUP             0 ****  ****    0  
@<TRIPOS>MOLECULE
Molecule Name_00195
    42    42     1     0     0
SMALL
NO_CHARGES
****
Generated from the CSD

@<TRIPOS>ATOM
     1 C1       3.5312  -0.5130  -0.1621   C.ar      1 1      0.0000
     2 C2       2.7122  -0.7297  -1.2479   C.ar      1 1      0.0000
     3 C3       1.3469  -0.5782  -1.0870   C.ar      1 1      0.0000
     4 C4       0.7964  -0.2181   0.1379   C.ar      1 1      0.0000
     5 C5       1.6604  -0.0057   1.2065   C.ar      1 1      0.0000
     6 C6       3.0288  -0.1514   1.0681   C.ar      1 1      0.0000
     7 H7       3.1290  -1.0129  -2.2088   H         1 1      0.0000
     8 H8       0.6960  -0.7446  -1.9385   H         1 1      0.0000
     9 H9       1.2570   0.2813   2.1718   H         1 1      0.0000
    10 H10      3.6920   0.0157   1.9104   H         1 1      0.0000
    11 N11      4.9818  -0.6719  -0.3207   N.pl3     1 1      0.0000
    12 O12      5.6946  -0.4763   0.6513   O.2       1 1      0.0000
    13 O13      5.4118  -0.9927  -1.4177   O.2       1 1      0.0000
    14 CL3     -0.7152  -0.0631   0.3109   C.3       1 1      0.0000
    15 CL1     -1.4786  -1.0876  -0.5757   C.3       1 1      0.0000
    16 H16     -1.1824  -0.9366  -1.6208   H         1 1      0.0000
    17 H17     -1.1520  -2.0967  -0.2956   H         1 1      0.0000
    18 CL      -3.0147  -1.0424  -0.4941   C.3       1 1      0.0000
    19 CL2     -3.5317  -0.0162  -1.4856   C.3       1 1      0.0000
    20 H20     -4.5972  -0.1507  -1.6597   H         1 1      0.0000
    21 H21     -3.3740   0.9938  -1.1129   H         1 1      0.0000
    22 H22     -3.0179  -0.1092  -2.4402   H         1 1      0.0000
    23 OL2     -1.0177  -0.2565   1.6870   O.3       1 1      0.0000
    24 H24     -1.9868  -0.1232   1.8324   H         1 1      0.0000
    25 N25     -3.5732  -2.3258  -0.8300   N.3       1 1      0.0000
    26 H26     -3.2615  -2.5496  -1.7751   H         1 1      0.0000
    27 C27     -3.2033  -3.4566   0.0230   C.3       1 1      0.0000
    28 H28     -3.2068  -3.1662   1.0715   H         1 1      0.0000
    29 H29     -3.9034  -4.2799  -0.1030   H         1 1      0.0000
    30 H30     -2.2075  -3.8176  -0.2254   H         1 1      0.0000
    31 OL1     -3.4066  -0.6111   0.8036   O.3       1 1      0.0000
    32 H32     -4.3931  -0.5575   0.8482   H         1 1      0.0000
    33 CL4     -1.0225   1.3916  -0.0973   C.2       1 1      0.0000
    34 C34     -1.6362   3.5429   0.6910   C.3       1 1      0.0000
    35 H35     -0.7839   4.0365   0.2079   H         1 1      0.0000
    36 H36     -2.4949   3.6200   0.0127   H         1 1      0.0000
    37 OL3     -0.9886   1.7837  -1.2311   O.2       1 1      0.0000
    38 OL4     -1.3254   2.1428   0.9544   O.3       1 1      0.0000
    39 C39     -1.9431   4.1986   1.9819   C.3       1 1      0.0000
    40 H40     -1.0928   4.1365   2.6578   H         1 1      0.0000
    41 H41     -2.1821   5.2496   1.8334   H         1 1      0.0000
    42 H42     -2.7945   3.7223   2.4636   H         1 1      0.0000
@<TRIPOS>BOND
     1     1     2   ar
     2     1     6   ar
     3     1    11    1
     4     2     3   ar
     5     2     7    1
     6     3     4   ar
     7     3     8    1
     8     4     5   ar
     9     4    14    1
    10     5     6   ar
    11     5     9    1
    12     6    10    1
    13    11    12    2
    14    11    13    2
    15    14    15    1
    16    14    23    1
    17    14    33    1
    18    15    16    1
    19    15    17    1
    20    15    18    1
    21    18    19    1
    22    18    25    1
    23    18    31    1
    24    19    20    1
    25    19    21    1
    26    19    22    1
    27    23    24    1
    28    25    26    1
    29    25    27    1
    30    27    28    1
    31    27    29    1
    32    27    30    1
    33    31    32    1
    34    33    37    2
    35    33    38    1
    36    34    35    1
    37    34    36    1
    38    34    38    1
    39    34    39    1
    40    39    40    1
    41    39    41    1
    42    39    42    1
@<TRIPOS>SUBSTRUCTURE
     1 1           1 GROUP             0 ****  ****    0  
@<TRIPOS>MOLECULE
Molecule Name_00196
    42    42     1     0     0
SMALL
NO_CHARGES
****
Generated from the CSD

@<TRIPOS>ATOM
     1 C1       3.5663  -0.3817  -0.1937   C.ar      1 1      0.0000
     2 C2       2.8282   0.4675  -0.9879   C.ar      1 1      0.0000
     3 C3       1.4533   0.4841  -0.8391   C.ar      1 1      0.0000
     4 C4       0.8139  -0.3340   0.0856   C.ar      1 1      0.0000
     5 C5       1.5981  -1.1732   0.8693   C.ar      1 1      0.0000
     6 C6       2.9745  -1.2060   0.7373   C.ar      1 1      0.0000
     7 H7       3.3148   1.1096  -1.7146   H         1 1      0.0000
     8 H8       0.8659   1.1524  -1.4593   H         1 1      0.0000
     9 H9       1.1246  -1.8179   1.6021   H         1 1      0.0000
    10 H10      3.5749  -1.8668   1.3538   H         1 1      0.0000
    11 N11      5.0263  -0.4087  -0.3437   N.pl3     1 1      0.0000
    12 O12      5.6666  -1.1670   0.3677   O.2       1 1      0.0000
    13 O13      5.5360   0.3282  -1.1734   O.2       1 1      0.0000
    14 CL3     -0.7079  -0.3179   0.2370   C.3       1 1      0.0000
    15 CL1     -1.3657  -1.3677  -0.7030   C.3       1 1      0.0000
    16 H16     -1.1286  -1.1065  -1.7413   H         1 1      0.0000
    17 H17     -0.9034  -2.3432  -0.5074   H         1 1      0.0000
    18 CL      -2.8911  -1.5280  -0.5778   C.3       1 1      0.0000
    19 CL2     -3.2082  -2.2271   0.7314   C.3       1 1      0.0000
    20 H20     -4.2696  -2.4566   0.7988   H         1 1      0.0000
    21 H21     -2.6539  -3.1596   0.8148   H         1 1      0.0000
    22 H22     -2.9429  -1.5982   1.5786   H         1 1      0.0000
    23 OL2     -1.0126  -0.5926   1.5986   O.3       1 1      0.0000
    24 H24     -1.8095  -0.0728   1.8685   H         1 1      0.0000
    25 N25     -3.5327  -0.2395  -0.5763   N.3       1 1      0.0000
    26 H26     -4.1476  -0.2106  -1.3896   H         1 1      0.0000
    27 C27     -4.3493   0.0962   0.5915   C.3       1 1      0.0000
    28 H28     -3.7342   0.1607   1.4866   H         1 1      0.0000
    29 H29     -4.8464   1.0539   0.4521   H         1 1      0.0000
    30 H30     -5.1127  -0.6607   0.7587   H         1 1      0.0000
    31 OL1     -3.3665  -2.3615  -1.6281   O.3       1 1      0.0000
    32 H32     -4.3431  -2.4853  -1.5330   H         1 1      0.0000
    33 CL4     -1.1351   1.1201  -0.1193   C.2       1 1      0.0000
    34 C34     -1.5363   3.2963   0.7347   C.3       1 1      0.0000
    35 H35     -0.8568   3.7751   0.0189   H         1 1      0.0000
    36 H36     -2.5496   3.3459   0.3175   H         1 1      0.0000
    37 OL3     -1.4202   1.4712  -1.2310   O.2       1 1      0.0000
    38 OL4     -1.1464   1.9077   0.9492   O.3       1 1      0.0000
    39 C39     -1.4842   3.9970   2.0374   C.3       1 1      0.0000
    40 H40     -0.4798   3.9623   2.4541   H         1 1      0.0000
    41 H41     -1.7688   5.0411   1.9253   H         1 1      0.0000
    42 H42     -2.1634   3.5354   2.7510   H         1 1      0.0000
@<TRIPOS>BOND
     1     1     2   ar
     2     1     6   ar
     3     1    11    1
     4     2     3   ar
     5     2     7    1
     6     3     4   ar
     7     3     8    1
     8     4     5   ar
     9     4    14    1
    10     5     6   ar
    11     5     9    1
    12     6    10    1
    13    11    12    2
    14    11    13    2
    15    14    15    1
    16    14    23    1
    17    14    33    1
    18    15    16    1
    19    15    17    1
    20    15    18    1
    21    18    19    1
    22    18    25    1
    23    18    31    1
    24    19    20    1
    25    19    21    1
    26    19    22    1
    27    23    24    1
    28    25    26    1
    29    25    27    1
    30    27    28    1
    31    27    29    1
    32    27    30    1
    33    31    32    1
    34    33    37    2
    35    33    38    1
    36    34    35    1
    37    34    36    1
    38    34    38    1
    39    34    39    1
    40    39    40    1
    41    39    41    1
    42    39    42    1
@<TRIPOS>SUBSTRUCTURE
     1 1           1 GROUP             0 ****  ****    0  
@<TRIPOS>MOLECULE
Molecule Name_00197
    42    42     1     0     0
SMALL
NO_CHARGES
****
Generated from the CSD

@<TRIPOS>ATOM
     1 C1       3.4240  -0.3596  -0.0885   C.ar      1 1      0.0000
     2 C2       2.5391  -0.1542  -1.1236   C.ar      1 1      0.0000
     3 C3       1.1846  -0.1458  -0.8439   C.ar      1 1      0.0000
     4 C4       0.7096  -0.3413   0.4481   C.ar      1 1      0.0000
     5 C5       1.6383  -0.5415   1.4634   C.ar      1 1      0.0000
     6 C6       2.9972  -0.5537   1.2064   C.ar      1 1      0.0000
     7 H7       2.8968  -0.0022  -2.1366   H         1 1      0.0000
     8 H8       0.4821   0.0181  -1.6538   H         1 1      0.0000
     9 H9       1.2942  -0.6912   2.4813   H         1 1      0.0000
    10 H10      3.7114  -0.7126   2.0075   H         1 1      0.0000
    11 N11      4.8638  -0.3718  -0.3737   N.pl3     1 1      0.0000
    12 O12      5.2221  -0.4787  -1.5362   O.2       1 1      0.0000
    13 O13      5.6398  -0.2745   0.5642   O.2       1 1      0.0000
    14 CL3     -0.7901  -0.3414   0.7479   C.3       1 1      0.0000
    15 CL1     -1.5903  -0.9333  -0.4470   C.3       1 1      0.0000
    16 H16     -1.4394  -0.2909  -1.3230   H         1 1      0.0000
    17 H17     -1.1649  -1.9135  -0.6950   H         1 1      0.0000
    18 CL      -3.1033  -1.1102  -0.2283   C.3       1 1      0.0000
    19 CL2     -3.7180   0.2415   0.0854   C.3       1 1      0.0000
    20 H20     -4.7767   0.2513  -0.1654   H         1 1      0.0000
    21 H21     -3.6183   0.4744   1.1435   H         1 1      0.0000
    22 H22     -3.2278   1.0294  -0.4827   H         1 1      0.0000
    23 OL2     -0.9977  -1.1071   1.9282   O.3       1 1      0.0000
    24 H24     -1.9576  -1.0909   2.1659   H         1 1      0.0000
    25 N25     -3.7248  -1.6313  -1.4175   N.3       1 1      0.0000
    26 H26     -4.3985  -0.9335  -1.7331   H         1 1      0.0000
    27 C27     -2.8483  -1.9258  -2.5524   C.3       1 1      0.0000
    28 H28     -2.0852  -2.6492  -2.2728   H         1 1      0.0000
    29 H29     -3.4178  -2.3378  -3.3828   H         1 1      0.0000
    30 H30     -2.3490  -1.0232  -2.8985   H         1 1      0.0000
    31 OL1     -3.3229  -1.9468   0.9011   O.3       1 1      0.0000
    32 H32     -4.2951  -2.0399   1.0571   H         1 1      0.0000
    33 CL4     -1.1515   1.1349   1.0066   C.2       1 1      0.0000
    34 C34     -1.2348   3.3095   0.0628   C.3       1 1      0.0000
    35 H35     -2.2943   3.4492   0.3108   H         1 1      0.0000
    36 H36     -0.6414   3.7554   0.8705   H         1 1      0.0000
    37 OL3     -1.5804   1.5395   2.0519   O.2       1 1      0.0000
    38 OL4     -0.9291   1.8893  -0.0628   O.3       1 1      0.0000
    39 C39     -0.9200   3.9655  -1.2260   C.3       1 1      0.0000
    40 H40     -1.5121   3.5367  -2.0318   H         1 1      0.0000
    41 H41     -1.1335   5.0313  -1.1786   H         1 1      0.0000
    42 H42      0.1318   3.8413  -1.4751   H         1 1      0.0000
@<TRIPOS>BOND
     1     1     2   ar
     2     1     6   ar
     3     1    11    1
     4     2     3   ar
     5     2     7    1
     6     3     4   ar
     7     3     8    1
     8     4     5   ar
     9     4    14    1
    10     5     6   ar
    11     5     9    1
    12     6    10    1
    13    11    12    2
    14    11    13    2
    15    14    15    1
    16    14    23    1
    17    14    33    1
    18    15    16    1
    19    15    17    1
    20    15    18    1
    21    18    19    1
    22    18    25    1
    23    18    31    1
    24    19    20    1
    25    19    21    1
    26    19    22    1
    27    23    24    1
    28    25    26    1
    29    25    27    1
    30    27    28    1
    31    27    29    1
    32    27    30    1
    33    31    32    1
    34    33    37    2
    35    33    38    1
    36    34    35    1
    37    34    36    1
    38    34    38    1
    39    34    39    1
    40    39    40    1
    41    39    41    1
    42    39    42    1
@<TRIPOS>SUBSTRUCTURE
     1 1           1 GROUP             0 ****  ****    0  
@<TRIPOS>MOLECULE
Molecule Name_00198
    42    42     1     0     0
SMALL
NO_CHARGES
****
Generated from the CSD

@<TRIPOS>ATOM
     1 C1       3.5225  -0.2751  -0.0876   C.ar      1 1      0.0000
     2 C2       2.6466  -0.0546  -1.1272   C.ar      1 1      0.0000
     3 C3       1.2887  -0.0975  -0.8682   C.ar      1 1      0.0000
     4 C4       0.8015  -0.3587   0.4077   C.ar      1 1      0.0000
     5 C5       1.7214  -0.5719   1.4283   C.ar      1 1      0.0000
     6 C6       3.0835  -0.5336   1.1919   C.ar      1 1      0.0000
     7 H7       3.0138   0.1485  -2.1278   H         1 1      0.0000
     8 H8       0.5930   0.0780  -1.6815   H         1 1      0.0000
     9 H9       1.3676  -0.7726   2.4341   H         1 1      0.0000
    10 H10      3.7909  -0.7034   1.9969   H         1 1      0.0000
    11 N11      4.9660  -0.2333  -0.3509   N.pl3     1 1      0.0000
    12 O12      5.3438  -0.2827  -1.5112   O.2       1 1      0.0000
    13 O13      5.7254  -0.1508   0.6018   O.2       1 1      0.0000
    14 CL3     -0.7016  -0.4152   0.6842   C.3       1 1      0.0000
    15 CL1     -1.4667  -0.9806  -0.5460   C.3       1 1      0.0000
    16 H16     -1.4028  -0.2528  -1.3638   H         1 1      0.0000
    17 H17     -0.9507  -1.8869  -0.8862   H         1 1      0.0000
    18 CL      -2.9483  -1.3302  -0.3206   C.3       1 1      0.0000
    19 CL2     -3.6747  -0.0977   0.1862   C.3       1 1      0.0000
    20 H20     -4.7484  -0.2700   0.2213   H         1 1      0.0000
    21 H21     -3.3403   0.1623   1.1884   H         1 1      0.0000
    22 H22     -3.4893   0.7542  -0.4646   H         1 1      0.0000
    23 OL2     -0.9027  -1.2347   1.8290   O.3       1 1      0.0000
    24 H24     -1.8659  -1.2565   2.0524   H         1 1      0.0000
    25 N25     -3.5593  -1.7466  -1.5555   N.3       1 1      0.0000
    26 H26     -3.9607  -2.6703  -1.3941   H         1 1      0.0000
    27 C27     -4.6292  -0.9007  -2.0875   C.3       1 1      0.0000
    28 H28     -4.2939   0.1299  -2.1841   H         1 1      0.0000
    29 H29     -4.9436  -1.2483  -3.0693   H         1 1      0.0000
    30 H30     -5.4954  -0.9150  -1.4294   H         1 1      0.0000
    31 OL1     -3.0505  -2.3264   0.6899   O.3       1 1      0.0000
    32 H32     -4.0039  -2.5328   0.8528   H         1 1      0.0000
    33 CL4     -1.1107   1.0379   0.9973   C.2       1 1      0.0000
    34 C34     -1.2792   3.2393   0.1302   C.3       1 1      0.0000
    35 H35     -2.3400   3.3335   0.3933   H         1 1      0.0000
    36 H36     -0.6925   3.6777   0.9469   H         1 1      0.0000
    37 OL3     -1.5417   1.3914   2.0602   O.2       1 1      0.0000
    38 OL4     -0.9263   1.8357  -0.0475   O.3       1 1      0.0000
    39 C39     -1.0014   3.9495  -1.1383   C.3       1 1      0.0000
    40 H40     -1.5873   3.5282  -1.9525   H         1 1      0.0000
    41 H41     -1.2509   5.0050  -1.0519   H         1 1      0.0000
    42 H42      0.0512   3.8706  -1.4019   H         1 1      0.0000
@<TRIPOS>BOND
     1     1     2   ar
     2     1     6   ar
     3     1    11    1
     4     2     3   ar
     5     2     7    1
     6     3     4   ar
     7     3     8    1
     8     4     5   ar
     9     4    14    1
    10     5     6   ar
    11     5     9    1
    12     6    10    1
    13    11    12    2
    14    11    13    2
    15    14    15    1
    16    14    23    1
    17    14    33    1
    18    15    16    1
    19    15    17    1
    20    15    18    1
    21    18    19    1
    22    18    25    1
    23    18    31    1
    24    19    20    1
    25    19    21    1
    26    19    22    1
    27    23    24    1
    28    25    26    1
    29    25    27    1
    30    27    28    1
    31    27    29    1
    32    27    30    1
    33    31    32    1
    34    33    37    2
    35    33    38    1
    36    34    35    1
    37    34    36    1
    38    34    38    1
    39    34    39    1
    40    39    40    1
    41    39    41    1
    42    39    42    1
@<TRIPOS>SUBSTRUCTURE
     1 1           1 GROUP             0 ****  ****    0  
@<TRIPOS>MOLECULE
Molecule Name_00199
    42    42     1     0     0
SMALL
NO_CHARGES
****
Generated from the CSD

@<TRIPOS>ATOM
     1 C1       3.6449  -0.4256  -0.0957   C.ar      1 1      0.0000
     2 C2       3.1713   0.1736   1.0503   C.ar      1 1      0.0000
     3 C3       1.8043   0.2203   1.2557   C.ar      1 1      0.0000
     4 C4       0.9136  -0.3189   0.3343   C.ar      1 1      0.0000
     5 C5       1.4353  -0.9176  -0.8071   C.ar      1 1      0.0000
     6 C6       2.7986  -0.9755  -1.0327   C.ar      1 1      0.0000
     7 H7       3.8557   0.5998   1.7763   H         1 1      0.0000
     8 H8       1.4243   0.6883   2.1573   H         1 1      0.0000
     9 H9       0.7622  -1.3507  -1.5395   H         1 1      0.0000
    10 H10      3.1928  -1.4441  -1.9284   H         1 1      0.0000
    11 N11      5.0937  -0.4799  -0.3249   N.pl3     1 1      0.0000
    12 O12      5.4980  -1.0146  -1.3457   O.2       1 1      0.0000
    13 O13      5.8309   0.0119   0.5153   O.2       1 1      0.0000
    14 CL3     -0.5972  -0.2539   0.5631   C.3       1 1      0.0000
    15 CL1     -1.3665  -0.7287  -0.7022   C.3       1 1      0.0000
    16 H16     -1.2674   0.0370  -1.4811   H         1 1      0.0000
    17 H17     -0.8783  -1.6342  -1.0830   H         1 1      0.0000
    18 CL      -2.8621  -1.0365  -0.5104   C.3       1 1      0.0000
    19 CL2     -3.5500   0.1916   0.0570   C.3       1 1      0.0000
    20 H20     -4.6309   0.0684   0.0447   H         1 1      0.0000
    21 H21     -3.2405   0.3665   1.0853   H         1 1      0.0000
    22 H22     -3.3030   1.0761  -0.5264   H         1 1      0.0000
    23 OL2     -0.9033  -1.0756   1.6827   O.3       1 1      0.0000
    24 H24     -1.8697  -1.0115   1.8830   H         1 1      0.0000
    25 N25     -3.4734  -1.3622  -1.7722   N.3       1 1      0.0000
    26 H26     -2.9715  -2.1663  -2.1490   H         1 1      0.0000
    27 C27     -4.8943  -1.7139  -1.7524   C.3       1 1      0.0000
    28 H28     -5.5010  -0.8529  -1.4794   H         1 1      0.0000
    29 H29     -5.2194  -2.0609  -2.7310   H         1 1      0.0000
    30 H30     -5.0857  -2.5057  -1.0312   H         1 1      0.0000
    31 OL1     -3.0109  -2.0824   0.4424   O.3       1 1      0.0000
    32 H32     -3.9727  -2.2397   0.6103   H         1 1      0.0000
    33 CL4     -0.8932   1.2222   0.8956   C.2       1 1      0.0000
    34 C34     -1.4288   3.3485  -0.0092   C.3       1 1      0.0000
    35 H35     -0.8191   3.7553   0.8071   H         1 1      0.0000
    36 H36     -1.1864   3.9112  -0.9192   H         1 1      0.0000
    37 OL3     -0.8987   1.6625   2.0120   O.2       1 1      0.0000
    38 OL4     -1.1375   1.9324  -0.1990   O.3       1 1      0.0000
    39 C39     -2.8676   3.4854   0.3093   C.3       1 1      0.0000
    40 H40     -3.1154   2.9391   1.2170   H         1 1      0.0000
    41 H41     -3.1316   4.5301   0.4598   H         1 1      0.0000
    42 H42     -3.4807   3.0941  -0.4999   H         1 1      0.0000
@<TRIPOS>BOND
     1     1     2   ar
     2     1     6   ar
     3     1    11    1
     4     2     3   ar
     5     2     7    1
     6     3     4   ar
     7     3     8    1
     8     4     5   ar
     9     4    14    1
    10     5     6   ar
    11     5     9    1
    12     6    10    1
    13    11    12    2
    14    11    13    2
    15    14    15    1
    16    14    23    1
    17    14    33    1
    18    15    16    1
    19    15    17    1
    20    15    18    1
    21    18    19    1
    22    18    25    1
    23    18    31    1
    24    19    20    1
    25    19    21    1
    26    19    22    1
    27    23    24    1
    28    25    26    1
    29    25    27    1
    30    27    28    1
    31    27    29    1
    32    27    30    1
    33    31    32    1
    34    33    37    2
    35    33    38    1
    36    34    35    1
    37    34    36    1
    38    34    38    1
    39    34    39    1
    40    39    40    1
    41    39    41    1
    42    39    42    1
@<TRIPOS>SUBSTRUCTURE
     1 1           1 GROUP             0 ****  ****    0  
@<TRIPOS>MOLECULE
Molecule Name_00200
    42    42     1     0     0
SMALL
NO_CHARGES
****
Generated from the CSD

@<TRIPOS>ATOM
     1 C1       3.5757  -0.5016  -0.0815   C.ar      1 1      0.0000
     2 C2       3.1260   0.1802   1.0273   C.ar      1 1      0.0000
     3 C3       1.7635   0.2452   1.2562   C.ar      1 1      0.0000
     4 C4       0.8537  -0.3569   0.3942   C.ar      1 1      0.0000
     5 C5       1.3516  -1.0379  -0.7111   C.ar      1 1      0.0000
     6 C6       2.7100  -1.1156  -0.9592   C.ar      1 1      0.0000
     7 H7       3.8254   0.6559   1.7068   H         1 1      0.0000
     8 H8       1.4023   0.7781   2.1290   H         1 1      0.0000
     9 H9       0.6634  -1.5210  -1.3966   H         1 1      0.0000
    10 H10      3.0856  -1.6487  -1.8264   H         1 1      0.0000
    11 N11      5.0195  -0.5762  -0.3352   N.pl3     1 1      0.0000
    12 O12      5.4025  -1.1843  -1.3225   O.2       1 1      0.0000
    13 O13      5.7741  -0.0268   0.4523   O.2       1 1      0.0000
    14 CL3     -0.6520  -0.2715   0.6479   C.3       1 1      0.0000
    15 CL1     -1.4473  -0.8343  -0.5642   C.3       1 1      0.0000
    16 H16     -1.3622  -0.1275  -1.3984   H         1 1      0.0000
    17 H17     -0.9685  -1.7667  -0.8877   H         1 1      0.0000
    18 CL      -2.9393  -1.1224  -0.3210   C.3       1 1      0.0000
    19 CL2     -3.6151   0.1480   0.1615   C.3       1 1      0.0000
    20 H20     -4.6969   0.0319   0.1651   H         1 1      0.0000
    21 H21     -3.2972   0.3939   1.1725   H         1 1      0.0000
    22 H22     -3.3665   0.9867  -0.4854   H         1 1      0.0000
    23 OL2     -0.9365  -1.0095   1.8299   O.3       1 1      0.0000
    24 H24     -1.8987  -0.9288   2.0441   H         1 1      0.0000
    25 N25     -3.5746  -1.5440  -1.5419   N.3       1 1      0.0000
    26 H26     -4.5518  -1.7347  -1.3203   H         1 1      0.0000
    27 C27     -3.5646  -0.5976  -2.6588   C.3       1 1      0.0000
    28 H28     -2.5449  -0.3720  -2.9640   H         1 1      0.0000
    29 H29     -4.0922  -1.0084  -3.5171   H         1 1      0.0000
    30 H30     -4.0487   0.3354  -2.3781   H         1 1      0.0000
    31 OL1     -3.0714  -2.0904   0.7131   O.3       1 1      0.0000
    32 H32     -4.0307  -2.2567   0.8870   H         1 1      0.0000
    33 CL4     -0.9395   1.2255   0.8788   C.2       1 1      0.0000
    34 C34     -1.4851   3.2836  -0.1667   C.3       1 1      0.0000
    35 H35     -0.8601   3.7454   0.6075   H         1 1      0.0000
    36 H36     -1.2572   3.7786  -1.1188   H         1 1      0.0000
    37 OL3     -0.9253   1.7445   1.9609   O.2       1 1      0.0000
    38 OL4     -1.2010   1.8564  -0.2595   O.3       1 1      0.0000
    39 C39     -2.9177   3.4486   0.1660   C.3       1 1      0.0000
    40 H40     -3.1510   2.9697   1.1147   H         1 1      0.0000
    41 H41     -3.1762   4.5024   0.2457   H         1 1      0.0000
    42 H42     -3.5460   3.0027  -0.6022   H         1 1      0.0000
@<TRIPOS>BOND
     1     1     2   ar
     2     1     6   ar
     3     1    11    1
     4     2     3   ar
     5     2     7    1
     6     3     4   ar
     7     3     8    1
     8     4     5   ar
     9     4    14    1
    10     5     6   ar
    11     5     9    1
    12     6    10    1
    13    11    12    2
    14    11    13    2
    15    14    15    1
    16    14    23    1
    17    14    33    1
    18    15    16    1
    19    15    17    1
    20    15    18    1
    21    18    19    1
    22    18    25    1
    23    18    31    1
    24    19    20    1
    25    19    21    1
    26    19    22    1
    27    23    24    1
    28    25    26    1
    29    25    27    1
    30    27    28    1
    31    27    29    1
    32    27    30    1
    33    31    32    1
    34    33    37    2
    35    33    38    1
    36    34    35    1
    37    34    36    1
    38    34    38    1
    39    34    39    1
    40    39    40    1
    41    39    41    1
    42    39    42    1
@<TRIPOS>SUBSTRUCTURE
     1 1           1 GROUP             0 ****  ****    0  
@<TRIPOS>MOLECULE
Molecule Name_00201
    42    42     1     0     0
SMALL
NO_CHARGES
****
Generated from the CSD

@<TRIPOS>ATOM
     1 C1       3.5367  -0.5229  -0.0887   C.ar      1 1      0.0000
     2 C2       3.1012   0.1356   1.0397   C.ar      1 1      0.0000
     3 C3       1.7398   0.2415   1.2596   C.ar      1 1      0.0000
     4 C4       0.8173  -0.2972   0.3697   C.ar      1 1      0.0000
     5 C5       1.3009  -0.9568  -0.7547   C.ar      1 1      0.0000
     6 C6       2.6580  -1.0745  -0.9944   C.ar      1 1      0.0000
     7 H7       3.8108   0.5620   1.7411   H         1 1      0.0000
     8 H8       1.3897   0.7564   2.1476   H         1 1      0.0000
     9 H9       0.6023  -1.3908  -1.4623   H         1 1      0.0000
    10 H10      3.0223  -1.5904  -1.8766   H         1 1      0.0000
    11 N11      4.9793  -0.6405  -0.3331   N.pl3     1 1      0.0000
    12 O12      5.3495  -1.2273  -1.3380   O.2       1 1      0.0000
    13 O13      5.7455  -0.1463   0.4792   O.2       1 1      0.0000
    14 CL3     -0.6868  -0.1666   0.6141   C.3       1 1      0.0000
    15 CL1     -1.4903  -0.6581  -0.6233   C.3       1 1      0.0000
    16 H16     -1.3726   0.0739  -1.4315   H         1 1      0.0000
    17 H17     -1.0417  -1.5951  -0.9757   H         1 1      0.0000
    18 CL      -2.9937  -0.9012  -0.4024   C.3       1 1      0.0000
    19 CL2     -3.6279   0.3737   0.1228   C.3       1 1      0.0000
    20 H20     -4.7131   0.2961   0.1152   H         1 1      0.0000
    21 H21     -3.3094   0.5704   1.1444   H         1 1      0.0000
    22 H22     -3.3447   1.2264  -0.4907   H         1 1      0.0000
    23 OL2     -1.0084  -0.9344   1.7671   O.3       1 1      0.0000
    24 H24     -1.9690  -0.8267   1.9763   H         1 1      0.0000
    25 N25     -3.6329  -1.2535  -1.6431   N.3       1 1      0.0000
    26 H26     -3.5041  -0.4670  -2.2797   H         1 1      0.0000
    27 C27     -3.1391  -2.4478  -2.3308   C.3       1 1      0.0000
    28 H28     -3.2491  -3.3284  -1.7014   H         1 1      0.0000
    29 H29     -3.6918  -2.6185  -3.2522   H         1 1      0.0000
    30 H30     -2.0860  -2.3403  -2.5822   H         1 1      0.0000
    31 OL1     -3.1693  -1.9020   0.5933   O.3       1 1      0.0000
    32 H32     -4.1354  -2.0401   0.7536   H         1 1      0.0000
    33 CL4     -0.9229   1.3309   0.8949   C.2       1 1      0.0000
    34 C34     -1.3849   3.4423  -0.0824   C.3       1 1      0.0000
    35 H35     -0.7506   3.8541   0.7122   H         1 1      0.0000
    36 H36     -1.1309   3.9613  -1.0149   H         1 1      0.0000
    37 OL3     -0.9001   1.8112   1.9945   O.2       1 1      0.0000
    38 OL4     -1.1513   2.0097  -0.2228   O.3       1 1      0.0000
    39 C39     -2.8136   3.6474   0.2449   C.3       1 1      0.0000
    40 H40     -3.0723   3.1447   1.1745   H         1 1      0.0000
    41 H41     -3.0348   4.7065   0.3593   H         1 1      0.0000
    42 H42     -3.4505   3.2513  -0.5432   H         1 1      0.0000
@<TRIPOS>BOND
     1     1     2   ar
     2     1     6   ar
     3     1    11    1
     4     2     3   ar
     5     2     7    1
     6     3     4   ar
     7     3     8    1
     8     4     5   ar
     9     4    14    1
    10     5     6   ar
    11     5     9    1
    12     6    10    1
    13    11    12    2
    14    11    13    2
    15    14    15    1
    16    14    23    1
    17    14    33    1
    18    15    16    1
    19    15    17    1
    20    15    18    1
    21    18    19    1
    22    18    25    1
    23    18    31    1
    24    19    20    1
    25    19    21    1
    26    19    22    1
    27    23    24    1
    28    25    26    1
    29    25    27    1
    30    27    28    1
    31    27    29    1
    32    27    30    1
    33    31    32    1
    34    33    37    2
    35    33    38    1
    36    34    35    1
    37    34    36    1
    38    34    38    1
    39    34    39    1
    40    39    40    1
    41    39    41    1
    42    39    42    1
@<TRIPOS>SUBSTRUCTURE
     1 1           1 GROUP             0 ****  ****    0  
@<TRIPOS>MOLECULE
Molecule Name_00202
    42    42     1     0     0
SMALL
NO_CHARGES
****
Generated from the CSD

@<TRIPOS>ATOM
     1 C1       3.4743  -0.3443  -0.1114   C.ar      1 1      0.0000
     2 C2       3.0011   0.2926   1.0143   C.ar      1 1      0.0000
     3 C3       1.6398   0.2799   1.2583   C.ar      1 1      0.0000
     4 C4       0.7540  -0.3552   0.3949   C.ar      1 1      0.0000
     5 C5       1.2754  -0.9888  -0.7276   C.ar      1 1      0.0000
     6 C6       2.6331  -0.9887  -0.9911   C.ar      1 1      0.0000
     7 H7       3.6815   0.7934   1.6950   H         1 1      0.0000
     8 H8       1.2603   0.7772   2.1443   H         1 1      0.0000
     9 H9       0.6064  -1.4963  -1.4146   H         1 1      0.0000
    10 H10      3.0270  -1.4855  -1.8716   H         1 1      0.0000
    11 N11      4.9171  -0.3364  -0.3812   N.pl3     1 1      0.0000
    12 O12      5.3211  -0.9055  -1.3833   O.2       1 1      0.0000
    13 O13      5.6498   0.2390   0.4083   O.2       1 1      0.0000
    14 CL3     -0.7512  -0.3557   0.6657   C.3       1 1      0.0000
    15 CL1     -1.5287  -0.9391  -0.5482   C.3       1 1      0.0000
    16 H16     -1.4906  -0.2144  -1.3704   H         1 1      0.0000
    17 H17     -1.0044  -1.8388  -0.8932   H         1 1      0.0000
    18 CL      -3.0004  -1.3108  -0.2952   C.3       1 1      0.0000
    19 CL2     -3.7374  -0.0872   0.2178   C.3       1 1      0.0000
    20 H20     -4.8115  -0.2605   0.2292   H         1 1      0.0000
    21 H21     -3.4226   0.1562   1.2304   H         1 1      0.0000
    22 H22     -3.5400   0.7754  -0.4152   H         1 1      0.0000
    23 OL2     -0.9822  -1.1287   1.8368   O.3       1 1      0.0000
    24 H24     -1.9447  -1.1029   2.0631   H         1 1      0.0000
    25 N25     -3.6260  -1.7436  -1.5172   N.3       1 1      0.0000
    26 H26     -4.5891  -1.9902  -1.2891   H         1 1      0.0000
    27 C27     -3.6790  -0.7780  -2.6162   C.3       1 1      0.0000
    28 H28     -2.6763  -0.4930  -2.9279   H         1 1      0.0000
    29 H29     -4.1940  -1.2006  -3.4764   H         1 1      0.0000
    30 H30     -4.2085   0.1228  -2.3130   H         1 1      0.0000
    31 OL1     -3.0691  -2.3030   0.7220   O.3       1 1      0.0000
    32 H32     -4.0162  -2.5235   0.9026   H         1 1      0.0000
    33 CL4     -1.1161   1.1194   0.9268   C.2       1 1      0.0000
    34 C34     -1.7865   3.1623  -0.0750   C.3       1 1      0.0000
    35 H35     -2.4172   3.4661  -0.9195   H         1 1      0.0000
    36 H36     -2.3592   3.3278   0.8459   H         1 1      0.0000
    37 OL3     -1.1182   1.6190   2.0180   O.2       1 1      0.0000
    38 OL4     -1.4232   1.7553  -0.1972   O.3       1 1      0.0000
    39 C39     -0.5405   3.9607  -0.0533   C.3       1 1      0.0000
    40 H40      0.0294   3.8112  -0.9680   H         1 1      0.0000
    41 H41     -0.7638   5.0217   0.0372   H         1 1      0.0000
    42 H42      0.0871   3.6736   0.7878   H         1 1      0.0000
@<TRIPOS>BOND
     1     1     2   ar
     2     1     6   ar
     3     1    11    1
     4     2     3   ar
     5     2     7    1
     6     3     4   ar
     7     3     8    1
     8     4     5   ar
     9     4    14    1
    10     5     6   ar
    11     5     9    1
    12     6    10    1
    13    11    12    2
    14    11    13    2
    15    14    15    1
    16    14    23    1
    17    14    33    1
    18    15    16    1
    19    15    17    1
    20    15    18    1
    21    18    19    1
    22    18    25    1
    23    18    31    1
    24    19    20    1
    25    19    21    1
    26    19    22    1
    27    23    24    1
    28    25    26    1
    29    25    27    1
    30    27    28    1
    31    27    29    1
    32    27    30    1
    33    31    32    1
    34    33    37    2
    35    33    38    1
    36    34    35    1
    37    34    36    1
    38    34    38    1
    39    34    39    1
    40    39    40    1
    41    39    41    1
    42    39    42    1
@<TRIPOS>SUBSTRUCTURE
     1 1           1 GROUP             0 ****  ****    0  
@<TRIPOS>MOLECULE
Molecule Name_00203
    42    42     1     0     0
SMALL
NO_CHARGES
****
Generated from the CSD

@<TRIPOS>ATOM
     1 C1       3.4350  -0.3676  -0.1185   C.ar      1 1      0.0000
     2 C2       2.9779   0.2515   1.0237   C.ar      1 1      0.0000
     3 C3       1.6154   0.2822   1.2592   C.ar      1 1      0.0000
     4 C4       0.7127  -0.2924   0.3714   C.ar      1 1      0.0000
     5 C5       1.2180  -0.9100  -0.7673   C.ar      1 1      0.0000
     6 C6       2.5766  -0.9525  -1.0227   C.ar      1 1      0.0000
     7 H7       3.6718   0.7053   1.7236   H         1 1      0.0000
     8 H8       1.2485   0.7656   2.1581   H         1 1      0.0000
     9 H9       0.5354  -1.3707  -1.4736   H         1 1      0.0000
    10 H10      2.9578  -1.4362  -1.9160   H         1 1      0.0000
    11 N11      4.8790  -0.4052  -0.3796   N.pl3     1 1      0.0000
    12 O12      5.2684  -0.9578  -1.3965   O.2       1 1      0.0000
    13 O13      5.6270   0.1177   0.4317   O.2       1 1      0.0000
    14 CL3     -0.7933  -0.2450   0.6332   C.3       1 1      0.0000
    15 CL1     -1.5835  -0.7612  -0.6027   C.3       1 1      0.0000
    16 H16     -1.5131  -0.0133  -1.4017   H         1 1      0.0000
    17 H17     -1.0904  -1.6686  -0.9727   H         1 1      0.0000
    18 CL      -3.0696  -1.0858  -0.3698   C.3       1 1      0.0000
    19 CL2     -3.7636   0.1465   0.1809   C.3       1 1      0.0000
    20 H20     -4.8434   0.0129   0.1820   H         1 1      0.0000
    21 H21     -3.4454   0.3442   1.2023   H         1 1      0.0000
    22 H22     -3.5310   1.0219  -0.4220   H         1 1      0.0000
    23 OL2     -1.0611  -1.0446   1.7784   O.3       1 1      0.0000
    24 H24     -2.0235  -0.9899   1.9997   H         1 1      0.0000
    25 N25     -3.7033  -1.4532  -1.6090   N.3       1 1      0.0000
    26 H26     -3.6228  -0.6520  -2.2351   H         1 1      0.0000
    27 C27     -3.1556  -2.6100  -2.3194   C.3       1 1      0.0000
    28 H28     -3.2125  -3.5042  -1.7022   H         1 1      0.0000
    29 H29     -3.7089  -2.7962  -3.2375   H         1 1      0.0000
    30 H30     -2.1124  -2.4441  -2.5801   H         1 1      0.0000
    31 OL1     -3.1817  -2.1086   0.6126   O.3       1 1      0.0000
    32 H32     -4.1374  -2.2994   0.7809   H         1 1      0.0000
    33 CL4     -1.1050   1.2339   0.9379   C.2       1 1      0.0000
    34 C34     -1.6921   3.3303  -0.0038   C.3       1 1      0.0000
    35 H35     -2.3054   3.6834  -0.8420   H         1 1      0.0000
    36 H36     -2.2646   3.4886   0.9185   H         1 1      0.0000
    37 OL3     -1.0960   1.6994   2.0441   O.2       1 1      0.0000
    38 OL4     -1.3806   1.9152  -0.1675   O.3       1 1      0.0000
    39 C39     -0.4175   4.0806   0.0497   C.3       1 1      0.0000
    40 H40      0.1526   3.9381  -0.8659   H         1 1      0.0000
    41 H41     -0.6019   5.1459   0.1718   H         1 1      0.0000
    42 H42      0.1931   3.7445   0.8851   H         1 1      0.0000
@<TRIPOS>BOND
     1     1     2   ar
     2     1     6   ar
     3     1    11    1
     4     2     3   ar
     5     2     7    1
     6     3     4   ar
     7     3     8    1
     8     4     5   ar
     9     4    14    1
    10     5     6   ar
    11     5     9    1
    12     6    10    1
    13    11    12    2
    14    11    13    2
    15    14    15    1
    16    14    23    1
    17    14    33    1
    18    15    16    1
    19    15    17    1
    20    15    18    1
    21    18    19    1
    22    18    25    1
    23    18    31    1
    24    19    20    1
    25    19    21    1
    26    19    22    1
    27    23    24    1
    28    25    26    1
    29    25    27    1
    30    27    28    1
    31    27    29    1
    32    27    30    1
    33    31    32    1
    34    33    37    2
    35    33    38    1
    36    34    35    1
    37    34    36    1
    38    34    38    1
    39    34    39    1
    40    39    40    1
    41    39    41    1
    42    39    42    1
@<TRIPOS>SUBSTRUCTURE
     1 1           1 GROUP             0 ****  ****    0  
@<TRIPOS>MOLECULE
Molecule Name_00204
    42    42     1     0     0
SMALL
NO_CHARGES
****
Generated from the CSD

@<TRIPOS>ATOM
     1 C1       3.0948  -0.5178  -0.3940   C.ar      1 1      0.0000
     2 C2       2.3093  -0.2076  -1.4818   C.ar      1 1      0.0000
     3 C3       0.9749   0.0890  -1.2708   C.ar      1 1      0.0000
     4 C4       0.4220   0.0763   0.0048   C.ar      1 1      0.0000
     5 C5       1.2522  -0.2388   1.0748   C.ar      1 1      0.0000
     6 C6       2.5893  -0.5385   0.8869   C.ar      1 1      0.0000
     7 H7       2.7281  -0.1960  -2.4826   H         1 1      0.0000
     8 H8       0.3510   0.3369  -2.1226   H         1 1      0.0000
     9 H9       0.8470  -0.2506   2.0811   H         1 1      0.0000
    10 H10      3.2261  -0.7844   1.7302   H         1 1      0.0000
    11 N11      4.5122  -0.8355  -0.6059   N.pl3     1 1      0.0000
    12 O12      5.1955  -1.1085   0.3686   O.2       1 1      0.0000
    13 O13      4.9454  -0.8127  -1.7474   O.2       1 1      0.0000
    14 CL3     -1.0569   0.3948   0.2290   C.3       1 1      0.0000
    15 CL1     -1.9302  -0.2220  -0.9002   C.3       1 1      0.0000
    16 H16     -2.8932   0.3023  -0.9252   H         1 1      0.0000
    17 H17     -1.4381  -0.0282  -1.8613   H         1 1      0.0000
    18 CL      -2.2016  -1.7333  -0.7982   C.3       1 1      0.0000
    19 CL2     -0.8799  -2.4771  -0.8543   C.3       1 1      0.0000
    20 H20     -1.0423  -3.5405  -1.0169   H         1 1      0.0000
    21 H21     -0.2598  -2.1011  -1.6655   H         1 1      0.0000
    22 H22     -0.3297  -2.3566   0.0766   H         1 1      0.0000
    23 OL2     -1.4263  -0.1262   1.4997   O.3       1 1      0.0000
    24 H24     -2.1969   0.3835   1.8525   H         1 1      0.0000
    25 N25     -2.8495  -2.0439   0.4491   N.3       1 1      0.0000
    26 H26     -2.9889  -1.1616   0.9415   H         1 1      0.0000
    27 C27     -4.1536  -2.7050   0.3753   C.3       1 1      0.0000
    28 H28     -4.0737  -3.6590  -0.1416   H         1 1      0.0000
    29 H29     -4.5483  -2.8916   1.3719   H         1 1      0.0000
    30 H30     -4.8695  -2.0870  -0.1625   H         1 1      0.0000
    31 OL1     -2.9703  -2.1522  -1.9196   O.3       1 1      0.0000
    32 H32     -3.0382  -3.1389  -1.9215   H         1 1      0.0000
    33 CL4     -1.1418   1.9342   0.2453   C.2       1 1      0.0000
    34 C34     -1.0988   3.8686   1.6174   C.3       1 1      0.0000
    35 H35     -0.2970   4.3432   1.0383   H         1 1      0.0000
    36 H36     -2.0552   4.2440   1.2332   H         1 1      0.0000
    37 OL3     -1.2888   2.6009  -0.7418   O.2       1 1      0.0000
    38 OL4     -1.0326   2.4188   1.4763   O.3       1 1      0.0000
    39 C39     -0.9583   4.1998   3.0530   C.3       1 1      0.0000
    40 H40     -0.0072   3.8405   3.4404   H         1 1      0.0000
    41 H41     -1.0020   5.2760   3.2066   H         1 1      0.0000
    42 H42     -1.7558   3.7418   3.6343   H         1 1      0.0000
@<TRIPOS>BOND
     1     1     2   ar
     2     1     6   ar
     3     1    11    1
     4     2     3   ar
     5     2     7    1
     6     3     4   ar
     7     3     8    1
     8     4     5   ar
     9     4    14    1
    10     5     6   ar
    11     5     9    1
    12     6    10    1
    13    11    12    2
    14    11    13    2
    15    14    15    1
    16    14    23    1
    17    14    33    1
    18    15    16    1
    19    15    17    1
    20    15    18    1
    21    18    19    1
    22    18    25    1
    23    18    31    1
    24    19    20    1
    25    19    21    1
    26    19    22    1
    27    23    24    1
    28    25    26    1
    29    25    27    1
    30    27    28    1
    31    27    29    1
    32    27    30    1
    33    31    32    1
    34    33    37    2
    35    33    38    1
    36    34    35    1
    37    34    36    1
    38    34    38    1
    39    34    39    1
    40    39    40    1
    41    39    41    1
    42    39    42    1
@<TRIPOS>SUBSTRUCTURE
     1 1           1 GROUP             0 ****  ****    0  
@<TRIPOS>MOLECULE
Molecule Name_00205
    42    42     1     0     0
SMALL
NO_CHARGES
****
Generated from the CSD

@<TRIPOS>ATOM
     1 C1       2.9998  -0.5914  -0.4125   C.ar      1 1      0.0000
     2 C2       2.2437  -0.2131  -1.4997   C.ar      1 1      0.0000
     3 C3       0.9173   0.1229  -1.2981   C.ar      1 1      0.0000
     4 C4       0.3432   0.0827  -0.0324   C.ar      1 1      0.0000
     5 C5       1.1440  -0.3014   1.0374   C.ar      1 1      0.0000
     6 C6       2.4727  -0.6415   0.8588   C.ar      1 1      0.0000
     7 H7       2.6792  -0.1793  -2.4929   H         1 1      0.0000
     8 H8       0.3166   0.4244  -2.1493   H         1 1      0.0000
     9 H9       0.7220  -0.3360   2.0363   H         1 1      0.0000
    10 H10      3.0863  -0.9412   1.7019   H         1 1      0.0000
    11 N11      4.4084  -0.9514  -0.6146   N.pl3     1 1      0.0000
    12 O12      5.0655  -1.2846   0.3592   O.2       1 1      0.0000
    13 O13      4.8610  -0.9017  -1.7477   O.2       1 1      0.0000
    14 CL3     -1.1271   0.4453   0.1811   C.3       1 1      0.0000
    15 CL1     -1.9997  -0.0793  -0.9944   C.3       1 1      0.0000
    16 H16     -2.9370   0.4898  -1.0168   H         1 1      0.0000
    17 H17     -1.4761   0.1341  -1.9344   H         1 1      0.0000
    18 CL      -2.3420  -1.5794  -0.9676   C.3       1 1      0.0000
    19 CL2     -1.0543  -2.3806  -1.0282   C.3       1 1      0.0000
    20 H20     -1.2657  -3.4453  -1.1019   H         1 1      0.0000
    21 H21     -0.4609  -2.0921  -1.8933   H         1 1      0.0000
    22 H22     -0.4548  -2.2151  -0.1355   H         1 1      0.0000
    23 OL2     -1.5411  -0.1257   1.4161   O.3       1 1      0.0000
    24 H24     -2.4800   0.1271   1.5967   H         1 1      0.0000
    25 N25     -3.0335  -1.9149   0.2495   N.3       1 1      0.0000
    26 H26     -3.9562  -2.2591  -0.0159   H         1 1      0.0000
    27 C27     -2.4230  -2.9364   1.1021   C.3       1 1      0.0000
    28 H28     -1.4585  -2.6001   1.4767   H         1 1      0.0000
    29 H29     -3.0601  -3.1570   1.9560   H         1 1      0.0000
    30 H30     -2.2681  -3.8595   0.5474   H         1 1      0.0000
    31 OL1     -3.1013  -1.9117  -2.1238   O.3       1 1      0.0000
    32 H32     -3.2995  -2.8806  -2.1195   H         1 1      0.0000
    33 CL4     -1.1552   1.9839   0.2757   C.2       1 1      0.0000
    34 C34     -1.0831   3.8422   1.7481   C.3       1 1      0.0000
    35 H35     -0.2467   4.3146   1.2183   H         1 1      0.0000
    36 H36     -2.0126   4.2736   1.3565   H         1 1      0.0000
    37 OL3     -1.2467   2.7056  -0.6789   O.2       1 1      0.0000
    38 OL4     -1.0664   2.4000   1.5331   O.3       1 1      0.0000
    39 C39     -0.9751   4.0935   3.2027   C.3       1 1      0.0000
    40 H40     -0.0505   3.6782   3.5982   H         1 1      0.0000
    41 H41     -0.9835   5.1613   3.4112   H         1 1      0.0000
    42 H42     -1.8068   3.6375   3.7357   H         1 1      0.0000
@<TRIPOS>BOND
     1     1     2   ar
     2     1     6   ar
     3     1    11    1
     4     2     3   ar
     5     2     7    1
     6     3     4   ar
     7     3     8    1
     8     4     5   ar
     9     4    14    1
    10     5     6   ar
    11     5     9    1
    12     6    10    1
    13    11    12    2
    14    11    13    2
    15    14    15    1
    16    14    23    1
    17    14    33    1
    18    15    16    1
    19    15    17    1
    20    15    18    1
    21    18    19    1
    22    18    25    1
    23    18    31    1
    24    19    20    1
    25    19    21    1
    26    19    22    1
    27    23    24    1
    28    25    26    1
    29    25    27    1
    30    27    28    1
    31    27    29    1
    32    27    30    1
    33    31    32    1
    34    33    37    2
    35    33    38    1
    36    34    35    1
    37    34    36    1
    38    34    38    1
    39    34    39    1
    40    39    40    1
    41    39    41    1
    42    39    42    1
@<TRIPOS>SUBSTRUCTURE
     1 1           1 GROUP             0 ****  ****    0  
@<TRIPOS>MOLECULE
Molecule Name_00206
    42    42     1     0     0
SMALL
NO_CHARGES
****
Generated from the CSD

@<TRIPOS>ATOM
     1 C1       2.9040  -0.6662  -0.2228   C.ar      1 1      0.0000
     2 C2       2.1530   0.0709  -1.1113   C.ar      1 1      0.0000
     3 C3       0.8408   0.3624  -0.7854   C.ar      1 1      0.0000
     4 C4       0.2758  -0.0737   0.4078   C.ar      1 1      0.0000
     5 C5       1.0712  -0.8119   1.2771   C.ar      1 1      0.0000
     6 C6       2.3856  -1.1148   0.9716   C.ar      1 1      0.0000
     7 H7       2.5815   0.4156  -2.0466   H         1 1      0.0000
     8 H8       0.2443   0.9447  -1.4791   H         1 1      0.0000
     9 H9       0.6562  -1.1597   2.2173   H         1 1      0.0000
    10 H10      2.9951  -1.6932   1.6580   H         1 1      0.0000
    11 N11      4.2975  -0.9826  -0.5585   N.pl3     1 1      0.0000
    12 O12      4.9502  -1.6369   0.2396   O.2       1 1      0.0000
    13 O13      4.7425  -0.5775  -1.6211   O.2       1 1      0.0000
    14 CL3     -1.1792   0.2433   0.7563   C.3       1 1      0.0000
    15 CL1     -2.0860   0.1194  -0.5009   C.3       1 1      0.0000
    16 H16     -3.0007   0.7006  -0.3326   H         1 1      0.0000
    17 H17     -1.5661   0.5837  -1.3480   H         1 1      0.0000
    18 CL      -2.4858  -1.3092  -0.9102   C.3       1 1      0.0000
    19 CL2     -3.4598  -1.2356  -2.0717   C.3       1 1      0.0000
    20 H20     -3.7710  -2.2322  -2.3778   H         1 1      0.0000
    21 H21     -4.3489  -0.6731  -1.7945   H         1 1      0.0000
    22 H22     -3.0021  -0.7454  -2.9284   H         1 1      0.0000
    23 OL2     -1.5908  -0.6634   1.7717   O.3       1 1      0.0000
    24 H24     -2.5186  -0.4541   2.0429   H         1 1      0.0000
    25 N25     -1.3276  -2.0538  -1.3299   N.3       1 1      0.0000
    26 H26     -0.6447  -1.3773  -1.6712   H         1 1      0.0000
    27 C27     -0.6557  -2.8675  -0.3154   C.3       1 1      0.0000
    28 H28     -0.8557  -3.9251  -0.4746   H         1 1      0.0000
    29 H29      0.4213  -2.7172  -0.3515   H         1 1      0.0000
    30 H30     -1.0015  -2.6036   0.6819   H         1 1      0.0000
    31 OL1     -3.1637  -1.9382   0.1708   O.3       1 1      0.0000
    32 H32     -3.4431  -2.8472  -0.1009   H         1 1      0.0000
    33 CL4     -1.1587   1.6819   1.3106   C.2       1 1      0.0000
    34 C34     -1.0222   3.9812   0.7439   C.3       1 1      0.0000
    35 H35     -1.9391   4.2385   1.2885   H         1 1      0.0000
    36 H36     -0.1733   4.1647   1.4141   H         1 1      0.0000
    37 OL3     -1.2309   1.9434   2.4797   O.2       1 1      0.0000
    38 OL4     -1.0521   2.5805   0.3394   O.3       1 1      0.0000
    39 C39     -0.9008   4.8115  -0.4752   C.3       1 1      0.0000
    40 H40     -1.7445   4.6441  -1.1415   H         1 1      0.0000
    41 H41     -0.8747   5.8690  -0.2206   H         1 1      0.0000
    42 H42      0.0117   4.5706  -1.0166   H         1 1      0.0000
@<TRIPOS>BOND
     1     1     2   ar
     2     1     6   ar
     3     1    11    1
     4     2     3   ar
     5     2     7    1
     6     3     4   ar
     7     3     8    1
     8     4     5   ar
     9     4    14    1
    10     5     6   ar
    11     5     9    1
    12     6    10    1
    13    11    12    2
    14    11    13    2
    15    14    15    1
    16    14    23    1
    17    14    33    1
    18    15    16    1
    19    15    17    1
    20    15    18    1
    21    18    19    1
    22    18    25    1
    23    18    31    1
    24    19    20    1
    25    19    21    1
    26    19    22    1
    27    23    24    1
    28    25    26    1
    29    25    27    1
    30    27    28    1
    31    27    29    1
    32    27    30    1
    33    31    32    1
    34    33    37    2
    35    33    38    1
    36    34    35    1
    37    34    36    1
    38    34    38    1
    39    34    39    1
    40    39    40    1
    41    39    41    1
    42    39    42    1
@<TRIPOS>SUBSTRUCTURE
     1 1           1 GROUP             0 ****  ****    0  
@<TRIPOS>MOLECULE
Molecule Name_00207
    42    42     1     0     0
SMALL
NO_CHARGES
****
Generated from the CSD

@<TRIPOS>ATOM
     1 C1       2.9249  -0.7370  -0.1680   C.ar      1 1      0.0000
     2 C2       2.1280  -0.1651  -1.1346   C.ar      1 1      0.0000
     3 C3       0.8411   0.2102  -0.7938   C.ar      1 1      0.0000
     4 C4       0.3462   0.0190   0.4914   C.ar      1 1      0.0000
     5 C5       1.1863  -0.5586   1.4368   C.ar      1 1      0.0000
     6 C6       2.4765  -0.9413   1.1180   C.ar      1 1      0.0000
     7 H7       2.5016  -0.0121  -2.1417   H         1 1      0.0000
     8 H8       0.2088   0.6637  -1.5493   H         1 1      0.0000
     9 H9       0.8264  -0.7141   2.4484   H         1 1      0.0000
    10 H10      3.1214  -1.3926   1.8648   H         1 1      0.0000
    11 N11      4.2921  -1.1403  -0.5185   N.pl3     1 1      0.0000
    12 O12      4.9863  -1.6460   0.3496   O.2       1 1      0.0000
    13 O13      4.6749  -0.9524  -1.6628   O.2       1 1      0.0000
    14 CL3     -1.0816   0.4266   0.8579   C.3       1 1      0.0000
    15 CL1     -2.0639   0.0927  -0.3005   C.3       1 1      0.0000
    16 H16     -3.0449   0.5218  -0.0633   H         1 1      0.0000
    17 H17     -1.7089   0.5946  -1.2090   H         1 1      0.0000
    18 CL      -2.2509  -1.4007  -0.6213   C.3       1 1      0.0000
    19 CL2     -3.6905  -1.6395  -1.0384   C.3       1 1      0.0000
    20 H20     -3.8621  -2.6936  -1.2460   H         1 1      0.0000
    21 H21     -4.3760  -1.3332  -0.2510   H         1 1      0.0000
    22 H22     -3.9309  -1.0737  -1.9361   H         1 1      0.0000
    23 OL2     -1.4409  -0.2680   2.0457   O.3       1 1      0.0000
    24 H24     -2.3483   0.0080   2.3261   H         1 1      0.0000
    25 N25     -1.3888  -1.7930  -1.7053   N.3       1 1      0.0000
    26 H26     -0.4290  -1.6522  -1.3901   H         1 1      0.0000
    27 C27     -1.4897  -3.1781  -2.1683   C.3       1 1      0.0000
    28 H28     -2.4958  -3.3943  -2.5217   H         1 1      0.0000
    29 H29     -0.7963  -3.3628  -2.9861   H         1 1      0.0000
    30 H30     -1.2569  -3.8719  -1.3632   H         1 1      0.0000
    31 OL1     -2.0179  -2.1692   0.5529   O.3       1 1      0.0000
    32 H32     -2.1639  -3.1268   0.3534   H         1 1      0.0000
    33 CL4     -1.0120   1.9420   1.1336   C.2       1 1      0.0000
    34 C34     -0.8850   4.0936   0.1434   C.3       1 1      0.0000
    35 H35     -0.2744   4.3648   1.0134   H         1 1      0.0000
    36 H36     -0.4160   4.5356  -0.7444   H         1 1      0.0000
    37 OL3     -1.0106   2.4162   2.2361   O.2       1 1      0.0000
    38 OL4     -0.9544   2.6434   0.0081   O.3       1 1      0.0000
    39 C39     -2.2630   4.6089   0.3044   C.3       1 1      0.0000
    40 H40     -2.7328   4.1840   1.1890   H         1 1      0.0000
    41 H41     -2.2600   5.6919   0.4094   H         1 1      0.0000
    42 H42     -2.8736   4.3538  -0.5592   H         1 1      0.0000
@<TRIPOS>BOND
     1     1     2   ar
     2     1     6   ar
     3     1    11    1
     4     2     3   ar
     5     2     7    1
     6     3     4   ar
     7     3     8    1
     8     4     5   ar
     9     4    14    1
    10     5     6   ar
    11     5     9    1
    12     6    10    1
    13    11    12    2
    14    11    13    2
    15    14    15    1
    16    14    23    1
    17    14    33    1
    18    15    16    1
    19    15    17    1
    20    15    18    1
    21    18    19    1
    22    18    25    1
    23    18    31    1
    24    19    20    1
    25    19    21    1
    26    19    22    1
    27    23    24    1
    28    25    26    1
    29    25    27    1
    30    27    28    1
    31    27    29    1
    32    27    30    1
    33    31    32    1
    34    33    37    2
    35    33    38    1
    36    34    35    1
    37    34    36    1
    38    34    38    1
    39    34    39    1
    40    39    40    1
    41    39    41    1
    42    39    42    1
@<TRIPOS>SUBSTRUCTURE
     1 1           1 GROUP             0 ****  ****    0  
@<TRIPOS>MOLECULE
Molecule Name_00208
    42    42     1     0     0
SMALL
NO_CHARGES
****
Generated from the CSD

@<TRIPOS>ATOM
     1 C1       2.8325  -0.5752  -0.2033   C.ar      1 1      0.0000
     2 C2       1.9918  -0.0532  -1.1611   C.ar      1 1      0.0000
     3 C3       0.6899   0.2485  -0.8047   C.ar      1 1      0.0000
     4 C4       0.2231   0.0334   0.4872   C.ar      1 1      0.0000
     5 C5       1.1070  -0.4918   1.4233   C.ar      1 1      0.0000
     6 C6       2.4130  -0.8007   1.0889   C.ar      1 1      0.0000
     7 H7       2.3431   0.1177  -2.1733   H         1 1      0.0000
     8 H8       0.0229   0.6624  -1.5531   H         1 1      0.0000
     9 H9       0.7696  -0.6644   2.4398   H         1 1      0.0000
    10 H10      3.0922  -1.2117   1.8284   H         1 1      0.0000
    11 N11      4.2161  -0.9003  -0.5704   N.pl3     1 1      0.0000
    12 O12      4.9492  -1.3624   0.2901   O.2       1 1      0.0000
    13 O13      4.5729  -0.6944  -1.7199   O.2       1 1      0.0000
    14 CL3     -1.2210   0.3594   0.8710   C.3       1 1      0.0000
    15 CL1     -2.1971  -0.0344  -0.2738   C.3       1 1      0.0000
    16 H16     -3.1981   0.3383  -0.0251   H         1 1      0.0000
    17 H17     -1.8832   0.4842  -1.1881   H         1 1      0.0000
    18 CL      -2.3018  -1.5371  -0.5884   C.3       1 1      0.0000
    19 CL2     -3.7305  -1.8597  -0.9862   C.3       1 1      0.0000
    20 H20     -3.8437  -2.9227  -1.1890   H         1 1      0.0000
    21 H21     -4.4224  -1.5908  -0.1909   H         1 1      0.0000
    22 H22     -4.0144  -1.3117  -1.8822   H         1 1      0.0000
    23 OL2     -1.5246  -0.3508   2.0652   O.3       1 1      0.0000
    24 H24     -2.4427  -0.1266   2.3565   H         1 1      0.0000
    25 N25     -1.4324  -1.8827  -1.6823   N.3       1 1      0.0000
    26 H26     -0.4784  -1.6859  -1.3798   H         1 1      0.0000
    27 C27     -1.4593  -3.2728  -2.1405   C.3       1 1      0.0000
    28 H28     -2.4556  -3.5477  -2.4803   H         1 1      0.0000
    29 H29     -0.7668  -3.4201  -2.9666   H         1 1      0.0000
    30 H30     -1.1767  -3.9494  -1.3366   H         1 1      0.0000
    31 OL1     -2.0101  -2.2871   0.5848   O.3       1 1      0.0000
    32 H32     -2.1032  -3.2521   0.3896   H         1 1      0.0000
    33 CL4     -1.2353   1.8771   1.1419   C.2       1 1      0.0000
    34 C34     -1.2450   4.0292   0.1446   C.3       1 1      0.0000
    35 H35     -1.6705   4.4878  -0.7565   H         1 1      0.0000
    36 H36     -1.8674   4.3283   0.9970   H         1 1      0.0000
    37 OL3     -1.2472   2.3543   2.2431   O.2       1 1      0.0000
    38 OL4     -1.2325   2.5770   0.0139   O.3       1 1      0.0000
    39 C39      0.1485   4.4871   0.3427   C.3       1 1      0.0000
    40 H40      0.7714   4.2042  -0.5033   H         1 1      0.0000
    41 H41      0.1878   5.5695   0.4456   H         1 1      0.0000
    42 H42      0.5755   4.0456   1.2407   H         1 1      0.0000
@<TRIPOS>BOND
     1     1     2   ar
     2     1     6   ar
     3     1    11    1
     4     2     3   ar
     5     2     7    1
     6     3     4   ar
     7     3     8    1
     8     4     5   ar
     9     4    14    1
    10     5     6   ar
    11     5     9    1
    12     6    10    1
    13    11    12    2
    14    11    13    2
    15    14    15    1
    16    14    23    1
    17    14    33    1
    18    15    16    1
    19    15    17    1
    20    15    18    1
    21    18    19    1
    22    18    25    1
    23    18    31    1
    24    19    20    1
    25    19    21    1
    26    19    22    1
    27    23    24    1
    28    25    26    1
    29    25    27    1
    30    27    28    1
    31    27    29    1
    32    27    30    1
    33    31    32    1
    34    33    37    2
    35    33    38    1
    36    34    35    1
    37    34    36    1
    38    34    38    1
    39    34    39    1
    40    39    40    1
    41    39    41    1
    42    39    42    1
@<TRIPOS>SUBSTRUCTURE
     1 1           1 GROUP             0 ****  ****    0  
@<TRIPOS>MOLECULE
Molecule Name_00209
    42    42     1     0     0
SMALL
NO_CHARGES
****
Generated from the CSD

@<TRIPOS>ATOM
     1 C1       3.4923  -0.2189  -0.0443   C.ar      1 1      0.0000
     2 C2       2.8596   0.9886   0.1507   C.ar      1 1      0.0000
     3 C3       1.4925   0.9926   0.3607   C.ar      1 1      0.0000
     4 C4       0.7575  -0.1876   0.3751   C.ar      1 1      0.0000
     5 C5       1.4374  -1.3843   0.1775   C.ar      1 1      0.0000
     6 C6       2.8039  -1.4116  -0.0342   C.ar      1 1      0.0000
     7 H7       3.4213   1.9168   0.1400   H         1 1      0.0000
     8 H8       0.9880   1.9397   0.5177   H         1 1      0.0000
     9 H9       0.8882  -2.3199   0.1893   H         1 1      0.0000
    10 H10      3.3222  -2.3522  -0.1888   H         1 1      0.0000
    11 N11      4.9428  -0.2353  -0.2693   N.pl3     1 1      0.0000
    12 O12      5.4892  -1.3138  -0.4407   O.2       1 1      0.0000
    13 O13      5.5390   0.8304  -0.2753   O.2       1 1      0.0000
    14 CL3     -0.7556  -0.1744   0.5971   C.3       1 1      0.0000
    15 CL1     -1.4794  -1.0131  -0.4942   C.3       1 1      0.0000
    16 H16     -1.4886  -0.4396  -1.4289   H         1 1      0.0000
    17 H17     -0.8881  -1.9178  -0.6823   H         1 1      0.0000
    18 CL      -2.9217  -1.4430  -0.1730   C.3       1 1      0.0000
    19 CL2     -3.7457  -0.2085   0.1442   C.3       1 1      0.0000
    20 H20     -4.8015  -0.4591   0.2222   H         1 1      0.0000
    21 H21     -3.4315   0.2331   1.0876   H         1 1      0.0000
    22 H22     -3.6322   0.5418  -0.6356   H         1 1      0.0000
    23 OL2     -1.0095  -0.6996   1.8941   O.3       1 1      0.0000
    24 H24     -1.9756  -0.6294   2.0938   H         1 1      0.0000
    25 N25     -3.5110  -2.1087  -1.3050   N.3       1 1      0.0000
    26 H26     -2.9213  -2.9129  -1.5193   H         1 1      0.0000
    27 C27     -4.8777  -2.6087  -1.1461   C.3       1 1      0.0000
    28 H28     -5.5786  -1.7848  -1.0293   H         1 1      0.0000
    29 H29     -5.1793  -3.1897  -2.0151   H         1 1      0.0000
    30 H30     -4.9553  -3.2467  -0.2682   H         1 1      0.0000
    31 OL1     -2.9229  -2.2622   0.9901   O.3       1 1      0.0000
    32 H32     -3.8547  -2.4907   1.2302   H         1 1      0.0000
    33 CL4     -1.1601   1.3124   0.5417   C.2       1 1      0.0000
    34 C34     -1.3585   3.2218  -0.8514   C.3       1 1      0.0000
    35 H35     -1.6172   3.4204  -1.8988   H         1 1      0.0000
    36 H36     -2.2326   3.4734  -0.2382   H         1 1      0.0000
    37 OL3     -1.5628   1.9261   1.4912   O.2       1 1      0.0000
    38 OL4     -1.0065   1.8177  -0.6761   O.3       1 1      0.0000
    39 C39     -0.1957   4.0434  -0.4468   C.3       1 1      0.0000
    40 H40      0.6737   3.8082  -1.0571   H         1 1      0.0000
    41 H41     -0.4137   5.1031  -0.5614   H         1 1      0.0000
    42 H42      0.0617   3.8610   0.5944   H         1 1      0.0000
@<TRIPOS>BOND
     1     1     2   ar
     2     1     6   ar
     3     1    11    1
     4     2     3   ar
     5     2     7    1
     6     3     4   ar
     7     3     8    1
     8     4     5   ar
     9     4    14    1
    10     5     6   ar
    11     5     9    1
    12     6    10    1
    13    11    12    2
    14    11    13    2
    15    14    15    1
    16    14    23    1
    17    14    33    1
    18    15    16    1
    19    15    17    1
    20    15    18    1
    21    18    19    1
    22    18    25    1
    23    18    31    1
    24    19    20    1
    25    19    21    1
    26    19    22    1
    27    23    24    1
    28    25    26    1
    29    25    27    1
    30    27    28    1
    31    27    29    1
    32    27    30    1
    33    31    32    1
    34    33    37    2
    35    33    38    1
    36    34    35    1
    37    34    36    1
    38    34    38    1
    39    34    39    1
    40    39    40    1
    41    39    41    1
    42    39    42    1
@<TRIPOS>SUBSTRUCTURE
     1 1           1 GROUP             0 ****  ****    0  
@<TRIPOS>MOLECULE
Molecule Name_00210
    42    42     1     0     0
SMALL
NO_CHARGES
****
Generated from the CSD

@<TRIPOS>ATOM
     1 C1       3.4348  -0.2798  -0.0288   C.ar      1 1      0.0000
     2 C2       2.8056   0.9405   0.0793   C.ar      1 1      0.0000
     3 C3       1.4432   0.9634   0.3164   C.ar      1 1      0.0000
     4 C4       0.7092  -0.2107   0.4431   C.ar      1 1      0.0000
     5 C5       1.3854  -1.4205   0.3305   C.ar      1 1      0.0000
     6 C6       2.7472  -1.4667   0.0936   C.ar      1 1      0.0000
     7 H7       3.3665   1.8640  -0.0194   H         1 1      0.0000
     8 H8       0.9415   1.9208   0.4054   H         1 1      0.0000
     9 H9       0.8371  -2.3512   0.4306   H         1 1      0.0000
    10 H10      3.2627  -2.4174   0.0062   H         1 1      0.0000
    11 N11      4.8803  -0.3163  -0.2817   N.pl3     1 1      0.0000
    12 O12      5.4235  -1.4060  -0.3750   O.2       1 1      0.0000
    13 O13      5.4757   0.7446  -0.3876   O.2       1 1      0.0000
    14 CL3     -0.7990  -0.1775   0.6945   C.3       1 1      0.0000
    15 CL1     -1.5449  -1.1018  -0.3093   C.3       1 1      0.0000
    16 H16     -1.5793  -0.6040  -1.2858   H         1 1      0.0000
    17 H17     -0.9541  -2.0169  -0.4398   H         1 1      0.0000
    18 CL      -2.9771  -1.5090   0.0799   C.3       1 1      0.0000
    19 CL2     -3.7958  -0.2558   0.3299   C.3       1 1      0.0000
    20 H20     -4.8580  -0.4589   0.2106   H         1 1      0.0000
    21 H21     -3.6331   0.1161   1.3394   H         1 1      0.0000
    22 H22     -3.5204   0.5308  -0.3695   H         1 1      0.0000
    23 OL2     -1.0258  -0.5944   2.0351   O.3       1 1      0.0000
    24 H24     -1.9809  -0.4712   2.2605   H         1 1      0.0000
    25 N25     -3.5941  -2.2543  -0.9858   N.3       1 1      0.0000
    26 H26     -4.5291  -2.5108  -0.6691   H         1 1      0.0000
    27 C27     -3.7485  -1.5728  -2.2722   C.3       1 1      0.0000
    28 H28     -2.7783  -1.3084  -2.6875   H         1 1      0.0000
    29 H29     -4.2609  -2.2120  -2.9882   H         1 1      0.0000
    30 H30     -4.3285  -0.6594  -2.1576   H         1 1      0.0000
    31 OL1     -2.9452  -2.2432   1.2980   O.3       1 1      0.0000
    32 H32     -3.8678  -2.4830   1.5614   H         1 1      0.0000
    33 CL4     -1.2052   1.3003   0.5259   C.2       1 1      0.0000
    34 C34     -1.4334   3.0894  -1.0146   C.3       1 1      0.0000
    35 H35     -1.7141   3.2018  -2.0691   H         1 1      0.0000
    36 H36     -2.2947   3.3915  -0.4060   H         1 1      0.0000
    37 OL3     -1.5883   1.9902   1.4301   O.2       1 1      0.0000
    38 OL4     -1.0773   1.7039  -0.7322   O.3       1 1      0.0000
    39 C39     -0.2629   3.9399  -0.7030   C.3       1 1      0.0000
    40 H40      0.5938   3.6544  -1.3099   H         1 1      0.0000
    41 H41     -0.4836   4.9869  -0.8995   H         1 1      0.0000
    42 H42      0.0163   3.8431   0.3441   H         1 1      0.0000
@<TRIPOS>BOND
     1     1     2   ar
     2     1     6   ar
     3     1    11    1
     4     2     3   ar
     5     2     7    1
     6     3     4   ar
     7     3     8    1
     8     4     5   ar
     9     4    14    1
    10     5     6   ar
    11     5     9    1
    12     6    10    1
    13    11    12    2
    14    11    13    2
    15    14    15    1
    16    14    23    1
    17    14    33    1
    18    15    16    1
    19    15    17    1
    20    15    18    1
    21    18    19    1
    22    18    25    1
    23    18    31    1
    24    19    20    1
    25    19    21    1
    26    19    22    1
    27    23    24    1
    28    25    26    1
    29    25    27    1
    30    27    28    1
    31    27    29    1
    32    27    30    1
    33    31    32    1
    34    33    37    2
    35    33    38    1
    36    34    35    1
    37    34    36    1
    38    34    38    1
    39    34    39    1
    40    39    40    1
    41    39    41    1
    42    39    42    1
@<TRIPOS>SUBSTRUCTURE
     1 1           1 GROUP             0 ****  ****    0  
@<TRIPOS>MOLECULE
Molecule Name_00211
    42    42     1     0     0
SMALL
NO_CHARGES
****
Generated from the CSD

@<TRIPOS>ATOM
     1 C1       3.3898  -0.3090  -0.0476   C.ar      1 1      0.0000
     2 C2       2.8042   0.9260   0.1211   C.ar      1 1      0.0000
     3 C3       1.4410   0.9863   0.3466   C.ar      1 1      0.0000
     4 C4       0.6634  -0.1650   0.4021   C.ar      1 1      0.0000
     5 C5       1.2964  -1.3910   0.2298   C.ar      1 1      0.0000
     6 C6       2.6582  -1.4746   0.0034   C.ar      1 1      0.0000
     7 H7       3.3995   1.8321   0.0783   H         1 1      0.0000
     8 H8       0.9735   1.9554   0.4831   H         1 1      0.0000
     9 H9       0.7135  -2.3049   0.2738   H         1 1      0.0000
    10 H10      3.1397  -2.4376  -0.1311   H         1 1      0.0000
    11 N11      4.8357  -0.3851  -0.2887   N.pl3     1 1      0.0000
    12 O12      5.3400  -1.4874  -0.4363   O.2       1 1      0.0000
    13 O13      5.4705   0.6572  -0.3310   O.2       1 1      0.0000
    14 CL3     -0.8453  -0.0898   0.6409   C.3       1 1      0.0000
    15 CL1     -1.6130  -0.9302  -0.4186   C.3       1 1      0.0000
    16 H16     -1.6177  -0.3795  -1.3671   H         1 1      0.0000
    17 H17     -1.0548  -1.8583  -0.5930   H         1 1      0.0000
    18 CL      -3.0636  -1.3039  -0.0660   C.3       1 1      0.0000
    19 CL2     -3.8375  -0.0365   0.2476   C.3       1 1      0.0000
    20 H20     -4.9047  -0.1901   0.1015   H         1 1      0.0000
    21 H21     -3.6771   0.2680   1.2797   H         1 1      0.0000
    22 H22     -3.5208   0.7789  -0.3994   H         1 1      0.0000
    23 OL2     -1.1022  -0.5701   1.9546   O.3       1 1      0.0000
    24 H24     -2.0605  -0.4490   2.1673   H         1 1      0.0000
    25 N25     -3.6964  -1.9638  -1.1778   N.3       1 1      0.0000
    26 H26     -3.6931  -1.3060  -1.9574   H         1 1      0.0000
    27 C27     -3.0779  -3.2010  -1.6574   C.3       1 1      0.0000
    28 H28     -3.0508  -3.9496  -0.8684   H         1 1      0.0000
    29 H29     -3.6369  -3.6119  -2.4954   H         1 1      0.0000
    30 H30     -2.0572  -3.0192  -1.9873   H         1 1      0.0000
    31 OL1     -3.0728  -2.1063   1.1086   O.3       1 1      0.0000
    32 H32     -4.0066  -2.3253   1.3498   H         1 1      0.0000
    33 CL4     -1.1956   1.4089   0.5495   C.2       1 1      0.0000
    34 C34     -1.3412   3.2862  -0.8931   C.3       1 1      0.0000
    35 H35     -1.6056   3.4659  -1.9424   H         1 1      0.0000
    36 H36     -2.1977   3.5865  -0.2769   H         1 1      0.0000
    37 OL3     -1.5635   2.0625   1.4864   O.2       1 1      0.0000
    38 OL4     -1.0389   1.8752  -0.6835   O.3       1 1      0.0000
    39 C39     -0.1440   4.0747  -0.5246   C.3       1 1      0.0000
    40 H40      0.7084   3.7911  -1.1383   H         1 1      0.0000
    41 H41     -0.3243   5.1383  -0.6657   H         1 1      0.0000
    42 H42      0.1196   3.9110   0.5182   H         1 1      0.0000
@<TRIPOS>BOND
     1     1     2   ar
     2     1     6   ar
     3     1    11    1
     4     2     3   ar
     5     2     7    1
     6     3     4   ar
     7     3     8    1
     8     4     5   ar
     9     4    14    1
    10     5     6   ar
    11     5     9    1
    12     6    10    1
    13    11    12    2
    14    11    13    2
    15    14    15    1
    16    14    23    1
    17    14    33    1
    18    15    16    1
    19    15    17    1
    20    15    18    1
    21    18    19    1
    22    18    25    1
    23    18    31    1
    24    19    20    1
    25    19    21    1
    26    19    22    1
    27    23    24    1
    28    25    26    1
    29    25    27    1
    30    27    28    1
    31    27    29    1
    32    27    30    1
    33    31    32    1
    34    33    37    2
    35    33    38    1
    36    34    35    1
    37    34    36    1
    38    34    38    1
    39    34    39    1
    40    39    40    1
    41    39    41    1
    42    39    42    1
@<TRIPOS>SUBSTRUCTURE
     1 1           1 GROUP             0 ****  ****    0  
@<TRIPOS>MOLECULE
Molecule Name_00212
    42    42     1     0     0
SMALL
NO_CHARGES
****
Generated from the CSD

@<TRIPOS>ATOM
     1 C1       3.5145  -0.4984  -0.0501   C.ar      1 1      0.0000
     2 C2       2.9989  -1.0425   1.1052   C.ar      1 1      0.0000
     3 C3       1.6394  -0.9368   1.3365   C.ar      1 1      0.0000
     4 C4       0.7977  -0.2963   0.4340   C.ar      1 1      0.0000
     5 C5       1.3601   0.2355  -0.7211   C.ar      1 1      0.0000
     6 C6       2.7168   0.1412  -0.9727   C.ar      1 1      0.0000
     7 H7       3.6452  -1.5433   1.8185   H         1 1      0.0000
     8 H8       1.2260  -1.3654   2.2430   H         1 1      0.0000
     9 H9       0.7247   0.7357  -1.4442   H         1 1      0.0000
    10 H10      3.1434   0.5619  -1.8773   H         1 1      0.0000
    11 N11      4.9562  -0.6035  -0.3057   N.pl3     1 1      0.0000
    12 O12      5.6867  -0.9141   0.6223   O.2       1 1      0.0000
    13 O13      5.3613  -0.3757  -1.4349   O.2       1 1      0.0000
    14 CL3     -0.7030  -0.1738   0.7019   C.3       1 1      0.0000
    15 CL1     -1.5214  -0.8729  -0.4205   C.3       1 1      0.0000
    16 H16     -1.3756  -0.3209  -1.3568   H         1 1      0.0000
    17 H17     -1.1065  -1.8765  -0.5756   H         1 1      0.0000
    18 CL      -3.0331  -1.0141  -0.1694   C.3       1 1      0.0000
    19 CL2     -3.6328   0.3669   0.0222   C.3       1 1      0.0000
    20 H20     -4.7139   0.3377  -0.0963   H         1 1      0.0000
    21 H21     -3.4109   0.7491   1.0165   H         1 1      0.0000
    22 H22     -3.2306   1.0666  -0.7074   H         1 1      0.0000
    23 OL2     -0.9685  -0.7644   1.9681   O.3       1 1      0.0000
    24 H24     -1.9286  -0.6639   2.1828   H         1 1      0.0000
    25 N25     -3.6731  -1.6390  -1.2972   N.3       1 1      0.0000
    26 H26     -4.3436  -0.9672  -1.6707   H         1 1      0.0000
    27 C27     -2.8123  -2.0493  -2.4080   C.3       1 1      0.0000
    28 H28     -2.0514  -2.7487  -2.0683   H         1 1      0.0000
    29 H29     -3.3948  -2.5347  -3.1883   H         1 1      0.0000
    30 H30     -2.3106  -1.1886  -2.8453   H         1 1      0.0000
    31 OL1     -3.2463  -1.7386   1.0362   O.3       1 1      0.0000
    32 H32     -4.2173  -1.8073   1.2110   H         1 1      0.0000
    33 CL4     -0.9821   1.3415   0.7579   C.2       1 1      0.0000
    34 C34     -1.2643   3.3140  -0.5289   C.3       1 1      0.0000
    35 H35     -0.7410   3.8228   0.2901   H         1 1      0.0000
    36 H36     -0.8736   3.7127  -1.4733   H         1 1      0.0000
    37 OL3     -1.1294   1.9515   1.7809   O.2       1 1      0.0000
    38 OL4     -1.0371   1.8755  -0.4562   O.3       1 1      0.0000
    39 C39     -2.7212   3.5568  -0.4345   C.3       1 1      0.0000
    40 H40     -3.1187   3.1603   0.4975   H         1 1      0.0000
    41 H41     -2.9377   4.6225  -0.4690   H         1 1      0.0000
    42 H42     -3.2463   3.0775  -1.2581   H         1 1      0.0000
@<TRIPOS>BOND
     1     1     2   ar
     2     1     6   ar
     3     1    11    1
     4     2     3   ar
     5     2     7    1
     6     3     4   ar
     7     3     8    1
     8     4     5   ar
     9     4    14    1
    10     5     6   ar
    11     5     9    1
    12     6    10    1
    13    11    12    2
    14    11    13    2
    15    14    15    1
    16    14    23    1
    17    14    33    1
    18    15    16    1
    19    15    17    1
    20    15    18    1
    21    18    19    1
    22    18    25    1
    23    18    31    1
    24    19    20    1
    25    19    21    1
    26    19    22    1
    27    23    24    1
    28    25    26    1
    29    25    27    1
    30    27    28    1
    31    27    29    1
    32    27    30    1
    33    31    32    1
    34    33    37    2
    35    33    38    1
    36    34    35    1
    37    34    36    1
    38    34    38    1
    39    34    39    1
    40    39    40    1
    41    39    41    1
    42    39    42    1
@<TRIPOS>SUBSTRUCTURE
     1 1           1 GROUP             0 ****  ****    0  
@<TRIPOS>MOLECULE
Molecule Name_00213
    42    42     1     0     0
SMALL
NO_CHARGES
****
Generated from the CSD

@<TRIPOS>ATOM
     1 C1       3.6291  -0.3872  -0.1657   C.ar      1 1      0.0000
     2 C2       3.0886  -1.3427   0.6659   C.ar      1 1      0.0000
     3 C3       1.7149  -1.3831   0.8219   C.ar      1 1      0.0000
     4 C4       0.8834  -0.4844   0.1629   C.ar      1 1      0.0000
     5 C5       1.4713   0.4614  -0.6696   C.ar      1 1      0.0000
     6 C6       2.8425   0.5198  -0.8404   C.ar      1 1      0.0000
     7 H7       3.7265  -2.0487   1.1873   H         1 1      0.0000
     8 H8       1.2821  -2.1347   1.4730   H         1 1      0.0000
     9 H9       0.8446   1.1710  -1.1996   H         1 1      0.0000
    10 H10      3.2888   1.2640  -1.4917   H         1 1      0.0000
    11 N11      5.0859  -0.3341  -0.3380   N.pl3     1 1      0.0000
    12 O12      5.7848  -0.9407   0.4587   O.2       1 1      0.0000
    13 O13      5.5345   0.3144  -1.2704   O.2       1 1      0.0000
    14 CL3     -0.6340  -0.5282   0.3489   C.3       1 1      0.0000
    15 CL1     -1.3471  -0.7977  -1.0065   C.3       1 1      0.0000
    16 H16     -1.0657  -0.0086  -1.7141   H         1 1      0.0000
    17 H17     -0.9656  -1.7416  -1.4152   H         1 1      0.0000
    18 CL      -2.8829  -0.8835  -0.9591   C.3       1 1      0.0000
    19 CL2     -3.2843  -2.1130  -0.1649   C.3       1 1      0.0000
    20 H20     -4.3602  -2.2677  -0.2111   H         1 1      0.0000
    21 H21     -2.7968  -3.0025  -0.5585   H         1 1      0.0000
    22 H22     -3.0018  -2.0062   0.8803   H         1 1      0.0000
    23 OL2     -0.9274  -1.5528   1.2906   O.3       1 1      0.0000
    24 H24     -1.5531  -1.2033   1.9721   H         1 1      0.0000
    25 N25     -3.4308   0.2793  -0.3113   N.3       1 1      0.0000
    26 H26     -4.0223   0.7517  -0.9950   H         1 1      0.0000
    27 C27     -4.2493   0.0534   0.8812   C.3       1 1      0.0000
    28 H28     -3.6528  -0.3776   1.6825   H         1 1      0.0000
    29 H29     -4.6741   0.9885   1.2403   H         1 1      0.0000
    30 H30     -5.0681  -0.6292   0.6634   H         1 1      0.0000
    31 OL1     -3.3880  -1.0491  -2.2786   O.3       1 1      0.0000
    32 H32     -4.3732  -1.1299  -2.2457   H         1 1      0.0000
    33 CL4     -1.0104   0.8482   0.9327   C.2       1 1      0.0000
    34 C34     -1.4047   3.1318   0.4267   C.3       1 1      0.0000
    35 H35     -0.9668   3.3378   1.4112   H         1 1      0.0000
    36 H36     -1.0056   3.8722  -0.2776   H         1 1      0.0000
    37 OL3     -1.2310   1.0370   2.0972   O.2       1 1      0.0000
    38 OL4     -1.0577   1.7839  -0.0078   O.3       1 1      0.0000
    39 C39     -2.8800   3.2306   0.4919   C.3       1 1      0.0000
    40 H40     -3.2842   2.5068   1.1965   H         1 1      0.0000
    41 H41     -3.1862   4.2240   0.8133   H         1 1      0.0000
    42 H42     -3.3229   3.0383  -0.4831   H         1 1      0.0000
@<TRIPOS>BOND
     1     1     2   ar
     2     1     6   ar
     3     1    11    1
     4     2     3   ar
     5     2     7    1
     6     3     4   ar
     7     3     8    1
     8     4     5   ar
     9     4    14    1
    10     5     6   ar
    11     5     9    1
    12     6    10    1
    13    11    12    2
    14    11    13    2
    15    14    15    1
    16    14    23    1
    17    14    33    1
    18    15    16    1
    19    15    17    1
    20    15    18    1
    21    18    19    1
    22    18    25    1
    23    18    31    1
    24    19    20    1
    25    19    21    1
    26    19    22    1
    27    23    24    1
    28    25    26    1
    29    25    27    1
    30    27    28    1
    31    27    29    1
    32    27    30    1
    33    31    32    1
    34    33    37    2
    35    33    38    1
    36    34    35    1
    37    34    36    1
    38    34    38    1
    39    34    39    1
    40    39    40    1
    41    39    41    1
    42    39    42    1
@<TRIPOS>SUBSTRUCTURE
     1 1           1 GROUP             0 ****  ****    0  
@<TRIPOS>MOLECULE
Molecule Name_00214
    42    42     1     0     0
SMALL
NO_CHARGES
****
Generated from the CSD

@<TRIPOS>ATOM
     1 C1       3.5218  -0.2394  -0.1917   C.ar      1 1      0.0000
     2 C2       3.0369  -1.1888   0.6802   C.ar      1 1      0.0000
     3 C3       1.6681  -1.2959   0.8469   C.ar      1 1      0.0000
     4 C4       0.7868  -0.4693   0.1589   C.ar      1 1      0.0000
     5 C5       1.3195   0.4729  -0.7139   C.ar      1 1      0.0000
     6 C6       2.6849   0.5972  -0.8960   C.ar      1 1      0.0000
     7 H7       3.7141  -1.8388   1.2244   H         1 1      0.0000
     8 H8       1.2790  -2.0432   1.5298   H         1 1      0.0000
     9 H9       0.6535   1.1267  -1.2670   H         1 1      0.0000
    10 H10      3.0878   1.3378  -1.5790   H         1 1      0.0000
    11 N11      4.9729  -0.1159  -0.3758   N.pl3     1 1      0.0000
    12 O12      5.7069  -0.6527   0.4393   O.2       1 1      0.0000
    13 O13      5.3820   0.5183  -1.3358   O.2       1 1      0.0000
    14 CL3     -0.7252  -0.5864   0.3567   C.3       1 1      0.0000
    15 CL1     -1.4293  -0.9465  -0.9823   C.3       1 1      0.0000
    16 H16     -1.1936  -0.1720  -1.7221   H         1 1      0.0000
    17 H17     -0.9998  -1.8841  -1.3563   H         1 1      0.0000
    18 CL      -2.9580  -1.1118  -0.9212   C.3       1 1      0.0000
    19 CL2     -3.2895  -2.3287  -0.0769   C.3       1 1      0.0000
    20 H20     -4.3559  -2.5420  -0.1098   H         1 1      0.0000
    21 H21     -2.7571  -3.2058  -0.4387   H         1 1      0.0000
    22 H22     -3.0083  -2.1659   0.9614   H         1 1      0.0000
    23 OL2     -0.9592  -1.5871   1.3397   O.3       1 1      0.0000
    24 H24     -1.5991  -1.2447   2.0115   H         1 1      0.0000
    25 N25     -3.5642   0.0448  -0.3157   N.3       1 1      0.0000
    26 H26     -4.1832   0.4579  -1.0133   H         1 1      0.0000
    27 C27     -4.3639  -0.1771   0.8902   C.3       1 1      0.0000
    28 H28     -3.7415  -0.5439   1.7037   H         1 1      0.0000
    29 H29     -4.8363   0.7476   1.2153   H         1 1      0.0000
    30 H30     -5.1461  -0.9102   0.7047   H         1 1      0.0000
    31 OL1     -3.4597  -1.3559  -2.2298   O.3       1 1      0.0000
    32 H32     -4.4390  -1.4875  -2.1872   H         1 1      0.0000
    33 CL4     -1.1718   0.7901   0.8887   C.2       1 1      0.0000
    34 C34     -1.6897   3.0279   0.2965   C.3       1 1      0.0000
    35 H35     -2.1538   3.5393  -0.5557   H         1 1      0.0000
    36 H36     -2.4330   2.9793   1.1018   H         1 1      0.0000
    37 OL3     -1.3967   1.0127   2.0464   O.2       1 1      0.0000
    38 OL4     -1.2733   1.6841  -0.0873   O.3       1 1      0.0000
    39 C39     -0.4923   3.7708   0.7492   C.3       1 1      0.0000
    40 H40      0.2466   3.8333  -0.0470   H         1 1      0.0000
    41 H41     -0.7564   4.7834   1.0468   H         1 1      0.0000
    42 H42     -0.0311   3.2764   1.6016   H         1 1      0.0000
@<TRIPOS>BOND
     1     1     2   ar
     2     1     6   ar
     3     1    11    1
     4     2     3   ar
     5     2     7    1
     6     3     4   ar
     7     3     8    1
     8     4     5   ar
     9     4    14    1
    10     5     6   ar
    11     5     9    1
    12     6    10    1
    13    11    12    2
    14    11    13    2
    15    14    15    1
    16    14    23    1
    17    14    33    1
    18    15    16    1
    19    15    17    1
    20    15    18    1
    21    18    19    1
    22    18    25    1
    23    18    31    1
    24    19    20    1
    25    19    21    1
    26    19    22    1
    27    23    24    1
    28    25    26    1
    29    25    27    1
    30    27    28    1
    31    27    29    1
    32    27    30    1
    33    31    32    1
    34    33    37    2
    35    33    38    1
    36    34    35    1
    37    34    36    1
    38    34    38    1
    39    34    39    1
    40    39    40    1
    41    39    41    1
    42    39    42    1
@<TRIPOS>SUBSTRUCTURE
     1 1           1 GROUP             0 ****  ****    0  
@<TRIPOS>MOLECULE
Molecule Name_00215
    42    42     1     0     0
SMALL
NO_CHARGES
****
Generated from the CSD

@<TRIPOS>ATOM
     1 C1       3.5861  -0.3302  -0.1435   C.ar      1 1      0.0000
     2 C2       2.8425   0.8282  -0.1868   C.ar      1 1      0.0000
     3 C3       1.4737   0.7425  -0.0081   C.ar      1 1      0.0000
     4 C4       0.8457  -0.4789   0.2091   C.ar      1 1      0.0000
     5 C5       1.6353  -1.6227   0.2487   C.ar      1 1      0.0000
     6 C6       3.0057  -1.5602   0.0726   C.ar      1 1      0.0000
     7 H7       3.3202   1.7874  -0.3573   H         1 1      0.0000
     8 H8       0.8821   1.6510  -0.0382   H         1 1      0.0000
     9 H9       1.1708  -2.5877   0.4219   H         1 1      0.0000
    10 H10      3.6102  -2.4606   0.1042   H         1 1      0.0000
    11 N11      5.0396  -0.2515  -0.3331   N.pl3     1 1      0.0000
    12 O12      5.6849  -1.2874  -0.2919   O.2       1 1      0.0000
    13 O13      5.5392   0.8464  -0.5235   O.2       1 1      0.0000
    14 CL3     -0.6697  -0.5671   0.3950   C.3       1 1      0.0000
    15 CL1     -1.3788  -0.8053  -0.9684   C.3       1 1      0.0000
    16 H16     -1.1430   0.0312  -1.6374   H         1 1      0.0000
    17 H17     -0.9531  -1.7072  -1.4254   H         1 1      0.0000
    18 CL      -2.9078  -0.9712  -0.9173   C.3       1 1      0.0000
    19 CL2     -3.2398  -2.2703  -0.2062   C.3       1 1      0.0000
    20 H20     -4.3070  -2.4758  -0.2567   H         1 1      0.0000
    21 H21     -2.7119  -3.1053  -0.6619   H         1 1      0.0000
    22 H22     -2.9536  -2.2200   0.8423   H         1 1      0.0000
    23 OL2     -0.9358  -1.6317   1.2996   O.3       1 1      0.0000
    24 H24     -1.5879  -1.3303   1.9793   H         1 1      0.0000
    25 N25     -3.5067   0.1161  -0.1886   N.3       1 1      0.0000
    26 H26     -4.1273   0.6034  -0.8349   H         1 1      0.0000
    27 C27     -4.3017  -0.2309   0.9907   C.3       1 1      0.0000
    28 H28     -3.6768  -0.6842   1.7573   H         1 1      0.0000
    29 H29     -4.7693   0.6552   1.4148   H         1 1      0.0000
    30 H30     -5.0872  -0.9378   0.7319   H         1 1      0.0000
    31 OL1     -3.4167  -1.0725  -2.2419   O.3       1 1      0.0000
    32 H32     -4.3963  -1.2047  -2.2085   H         1 1      0.0000
    33 CL4     -1.0789   0.7778   1.0284   C.2       1 1      0.0000
    34 C34     -1.6461   3.0391   0.5913   C.3       1 1      0.0000
    35 H35     -2.5934   2.9777   1.1412   H         1 1      0.0000
    36 H36     -0.8864   3.4323   1.2781   H         1 1      0.0000
    37 OL3     -1.2169   0.9400   2.2095   O.2       1 1      0.0000
    38 OL4     -1.2560   1.7193   0.1095   O.3       1 1      0.0000
    39 C39     -1.7906   3.9338  -0.5788   C.3       1 1      0.0000
    40 H40     -2.5501   3.5573  -1.2608   H         1 1      0.0000
    41 H41     -2.0821   4.9342  -0.2657   H         1 1      0.0000
    42 H42     -0.8525   4.0094  -1.1246   H         1 1      0.0000
@<TRIPOS>BOND
     1     1     2   ar
     2     1     6   ar
     3     1    11    1
     4     2     3   ar
     5     2     7    1
     6     3     4   ar
     7     3     8    1
     8     4     5   ar
     9     4    14    1
    10     5     6   ar
    11     5     9    1
    12     6    10    1
    13    11    12    2
    14    11    13    2
    15    14    15    1
    16    14    23    1
    17    14    33    1
    18    15    16    1
    19    15    17    1
    20    15    18    1
    21    18    19    1
    22    18    25    1
    23    18    31    1
    24    19    20    1
    25    19    21    1
    26    19    22    1
    27    23    24    1
    28    25    26    1
    29    25    27    1
    30    27    28    1
    31    27    29    1
    32    27    30    1
    33    31    32    1
    34    33    37    2
    35    33    38    1
    36    34    35    1
    37    34    36    1
    38    34    38    1
    39    34    39    1
    40    39    40    1
    41    39    41    1
    42    39    42    1
@<TRIPOS>SUBSTRUCTURE
     1 1           1 GROUP             0 ****  ****    0  
@<TRIPOS>MOLECULE
Molecule Name_00216
    42    42     1     0     0
SMALL
NO_CHARGES
****
Generated from the CSD

@<TRIPOS>ATOM
     1 C1       3.6339  -0.4066  -0.0315   C.ar      1 1      0.0000
     2 C2       2.9574   0.6904  -0.5168   C.ar      1 1      0.0000
     3 C3       1.5929   0.7724  -0.3063   C.ar      1 1      0.0000
     4 C4       0.9032  -0.2235   0.3762   C.ar      1 1      0.0000
     5 C5       1.6263  -1.3116   0.8521   C.ar      1 1      0.0000
     6 C6       2.9911  -1.4140   0.6531   C.ar      1 1      0.0000
     7 H7       3.4836   1.4735  -1.0527   H         1 1      0.0000
     8 H8       1.0542   1.6348  -0.6833   H         1 1      0.0000
     9 H9       1.1131  -2.1000   1.3926   H         1 1      0.0000
    10 H10      3.5434  -2.2693   1.0282   H         1 1      0.0000
    11 N11      5.0821  -0.5049  -0.2500   N.pl3     1 1      0.0000
    12 O12      5.6675  -1.4837   0.1864   O.2       1 1      0.0000
    13 O13      5.6375   0.3964  -0.8586   O.2       1 1      0.0000
    14 CL3     -0.6075  -0.1312   0.5957   C.3       1 1      0.0000
    15 CL1     -1.3756  -0.8329  -0.5601   C.3       1 1      0.0000
    16 H16     -1.3346  -0.1917  -1.4488   H         1 1      0.0000
    17 H17     -0.8464  -1.7601  -0.8127   H         1 1      0.0000
    18 CL      -2.8477  -1.1837  -0.2807   C.3       1 1      0.0000
    19 CL2     -3.5860   0.0769   0.1306   C.3       1 1      0.0000
    20 H20     -4.6584  -0.1011   0.1746   H         1 1      0.0000
    21 H21     -3.2577   0.4133   1.1119   H         1 1      0.0000
    22 H22     -3.4046   0.8797  -0.5810   H         1 1      0.0000
    23 OL2     -0.9034  -0.7400   1.8464   O.3       1 1      0.0000
    24 H24     -1.8648  -0.6260   2.0482   H         1 1      0.0000
    25 N25     -3.4709  -1.7137  -1.4651   N.3       1 1      0.0000
    26 H26     -2.9365  -2.5376  -1.7410   H         1 1      0.0000
    27 C27     -4.8705  -2.1277  -1.3525   C.3       1 1      0.0000
    28 H28     -5.5141  -1.2681  -1.1775   H         1 1      0.0000
    29 H29     -5.2019  -2.6192  -2.2648   H         1 1      0.0000
    30 H30     -5.0017  -2.8231  -0.5261   H         1 1      0.0000
    31 OL1     -2.9181  -2.0907   0.8129   O.3       1 1      0.0000
    32 H32     -3.8661  -2.2693   1.0312   H         1 1      0.0000
    33 CL4     -0.9162   1.3781   0.6577   C.2       1 1      0.0000
    34 C34     -1.3782   3.3215  -0.6215   C.3       1 1      0.0000
    35 H35     -0.8252   3.8620   0.1566   H         1 1      0.0000
    36 H36     -1.0703   3.7276  -1.5930   H         1 1      0.0000
    37 OL3     -0.9951   1.9975   1.6827   O.2       1 1      0.0000
    38 OL4     -1.0807   1.8956  -0.5536   O.3       1 1      0.0000
    39 C39     -2.8352   3.4989  -0.4311   C.3       1 1      0.0000
    40 H40     -3.1482   3.1084   0.5350   H         1 1      0.0000
    41 H41     -3.1043   4.5522  -0.4743   H         1 1      0.0000
    42 H42     -3.3919   2.9748  -1.2050   H         1 1      0.0000
@<TRIPOS>BOND
     1     1     2   ar
     2     1     6   ar
     3     1    11    1
     4     2     3   ar
     5     2     7    1
     6     3     4   ar
     7     3     8    1
     8     4     5   ar
     9     4    14    1
    10     5     6   ar
    11     5     9    1
    12     6    10    1
    13    11    12    2
    14    11    13    2
    15    14    15    1
    16    14    23    1
    17    14    33    1
    18    15    16    1
    19    15    17    1
    20    15    18    1
    21    18    19    1
    22    18    25    1
    23    18    31    1
    24    19    20    1
    25    19    21    1
    26    19    22    1
    27    23    24    1
    28    25    26    1
    29    25    27    1
    30    27    28    1
    31    27    29    1
    32    27    30    1
    33    31    32    1
    34    33    37    2
    35    33    38    1
    36    34    35    1
    37    34    36    1
    38    34    38    1
    39    34    39    1
    40    39    40    1
    41    39    41    1
    42    39    42    1
@<TRIPOS>SUBSTRUCTURE
     1 1           1 GROUP             0 ****  ****    0  
@<TRIPOS>MOLECULE
Molecule Name_00217
    42    42     1     0     0
SMALL
NO_CHARGES
****
Generated from the CSD

@<TRIPOS>ATOM
     1 C1       3.5713  -0.4744  -0.0175   C.ar      1 1      0.0000
     2 C2       2.8847   0.5816  -0.5743   C.ar      1 1      0.0000
     3 C3       1.5256   0.6845  -0.3389   C.ar      1 1      0.0000
     4 C4       0.8513  -0.2505   0.4384   C.ar      1 1      0.0000
     5 C5       1.5843  -1.2986   0.9839   C.ar      1 1      0.0000
     6 C6       2.9438  -1.4209   0.7617   C.ar      1 1      0.0000
     7 H7       3.3988   1.3170  -1.1843   H         1 1      0.0000
     8 H8       0.9790   1.5151  -0.7720   H         1 1      0.0000
     9 H9       1.0832  -2.0389   1.5986   H         1 1      0.0000
    10 H10      3.5040  -2.2446   1.1919   H         1 1      0.0000
    11 N11      5.0137  -0.5945  -0.2614   N.pl3     1 1      0.0000
    12 O12      5.6083  -1.5364   0.2391   O.2       1 1      0.0000
    13 O13      5.5555   0.2527  -0.9542   O.2       1 1      0.0000
    14 CL3     -0.6537  -0.1361   0.6852   C.3       1 1      0.0000
    15 CL1     -1.4498  -0.9271  -0.3912   C.3       1 1      0.0000
    16 H16     -1.4285  -0.3608  -1.3301   H         1 1      0.0000
    17 H17     -0.9283  -1.8737  -0.5794   H         1 1      0.0000
    18 CL      -2.9156  -1.2485  -0.0502   C.3       1 1      0.0000
    19 CL2     -3.6415   0.0441   0.2751   C.3       1 1      0.0000
    20 H20     -4.7194  -0.1018   0.2490   H         1 1      0.0000
    21 H21     -3.3714   0.3989   1.2675   H         1 1      0.0000
    22 H22     -3.3871   0.8206  -0.4433   H         1 1      0.0000
    23 OL2     -0.9204  -0.6404   1.9879   O.3       1 1      0.0000
    24 H24     -1.8763  -0.5061   2.2030   H         1 1      0.0000
    25 N25     -3.5676  -1.8700  -1.1729   N.3       1 1      0.0000
    26 H26     -4.5251  -2.0746  -0.8871   H         1 1      0.0000
    27 C27     -3.6460  -1.0929  -2.4111   C.3       1 1      0.0000
    28 H28     -2.6509  -0.8751  -2.7933   H         1 1      0.0000
    29 H29     -4.1906  -1.6414  -3.1768   H         1 1      0.0000
    30 H30     -4.1583  -0.1482  -2.2418   H         1 1      0.0000
    31 OL1     -2.9620  -2.0640   1.1146   O.3       1 1      0.0000
    32 H32     -3.9049  -2.2495   1.3486   H         1 1      0.0000
    33 CL4     -0.9592   1.3742   0.6316   C.2       1 1      0.0000
    34 C34     -1.4494   3.2085  -0.7901   C.3       1 1      0.0000
    35 H35     -0.8775   3.8088  -0.0718   H         1 1      0.0000
    36 H36     -1.1643   3.5334  -1.7983   H         1 1      0.0000
    37 OL3     -1.0129   2.0750   1.6044   O.2       1 1      0.0000
    38 OL4     -1.1520   1.7920  -0.6136   O.3       1 1      0.0000
    39 C39     -2.9012   3.4052  -0.5803   C.3       1 1      0.0000
    40 H40     -3.1916   3.0955   0.4215   H         1 1      0.0000
    41 H41     -3.1702   4.4524  -0.7026   H         1 1      0.0000
    42 H42     -3.4769   2.8216  -1.2957   H         1 1      0.0000
@<TRIPOS>BOND
     1     1     2   ar
     2     1     6   ar
     3     1    11    1
     4     2     3   ar
     5     2     7    1
     6     3     4   ar
     7     3     8    1
     8     4     5   ar
     9     4    14    1
    10     5     6   ar
    11     5     9    1
    12     6    10    1
    13    11    12    2
    14    11    13    2
    15    14    15    1
    16    14    23    1
    17    14    33    1
    18    15    16    1
    19    15    17    1
    20    15    18    1
    21    18    19    1
    22    18    25    1
    23    18    31    1
    24    19    20    1
    25    19    21    1
    26    19    22    1
    27    23    24    1
    28    25    26    1
    29    25    27    1
    30    27    28    1
    31    27    29    1
    32    27    30    1
    33    31    32    1
    34    33    37    2
    35    33    38    1
    36    34    35    1
    37    34    36    1
    38    34    38    1
    39    34    39    1
    40    39    40    1
    41    39    41    1
    42    39    42    1
@<TRIPOS>SUBSTRUCTURE
     1 1           1 GROUP             0 ****  ****    0  
@<TRIPOS>MOLECULE
Molecule Name_00218
    42    42     1     0     0
SMALL
NO_CHARGES
****
Generated from the CSD

@<TRIPOS>ATOM
     1 C1       3.5271  -0.5003  -0.0326   C.ar      1 1      0.0000
     2 C2       2.8849   0.6050  -0.5450   C.ar      1 1      0.0000
     3 C3       1.5275   0.7449  -0.3195   C.ar      1 1      0.0000
     4 C4       0.8112  -0.2017   0.4045   C.ar      1 1      0.0000
     5 C5       1.5002  -1.3002   0.9065   C.ar      1 1      0.0000
     6 C6       2.8573  -1.4601   0.6932   C.ar      1 1      0.0000
     7 H7       3.4320   1.3501  -1.1132   H         1 1      0.0000
     8 H8       1.0157   1.6142  -0.7177   H         1 1      0.0000
     9 H9       0.9659  -2.0508   1.4794   H         1 1      0.0000
    10 H10      3.3828  -2.3228   1.0890   H         1 1      0.0000
    11 N11      4.9674  -0.6598  -0.2667   N.pl3     1 1      0.0000
    12 O12      5.5224  -1.6452   0.1941   O.2       1 1      0.0000
    13 O13      5.5471   0.1998  -0.9118   O.2       1 1      0.0000
    14 CL3     -0.6917  -0.0457   0.6405   C.3       1 1      0.0000
    15 CL1     -1.5017  -0.7554  -0.4814   C.3       1 1      0.0000
    16 H16     -1.4495  -0.1455  -1.3913   H         1 1      0.0000
    17 H17     -1.0111  -1.7095  -0.7099   H         1 1      0.0000
    18 CL      -2.9818  -1.0412  -0.1715   C.3       1 1      0.0000
    19 CL2     -3.6649   0.2579   0.2148   C.3       1 1      0.0000
    20 H20     -4.7456   0.1655   0.1296   H         1 1      0.0000
    21 H21     -3.4278   0.5277   1.2418   H         1 1      0.0000
    22 H22     -3.3421   1.0707  -0.4323   H         1 1      0.0000
    23 OL2     -0.9921  -0.6021   1.9144   O.3       1 1      0.0000
    24 H24     -1.9358  -0.4127   2.1416   H         1 1      0.0000
    25 N25     -3.6427  -1.5790  -1.3316   N.3       1 1      0.0000
    26 H26     -3.5775  -0.8745  -2.0664   H         1 1      0.0000
    27 C27     -3.1095  -2.8256  -1.8835   C.3       1 1      0.0000
    28 H28     -3.1513  -3.6234  -1.1449   H         1 1      0.0000
    29 H29     -3.6831  -3.1388  -2.7534   H         1 1      0.0000
    30 H30     -2.0727  -2.7000  -2.1885   H         1 1      0.0000
    31 OL1     -3.0703  -1.9145   0.9480   O.3       1 1      0.0000
    32 H32     -4.0217  -2.0779   1.1630   H         1 1      0.0000
    33 CL4     -0.9434   1.4753   0.6567   C.2       1 1      0.0000
    34 C34     -1.3513   3.3920  -0.6798   C.3       1 1      0.0000
    35 H35     -0.7677   3.9364   0.0728   H         1 1      0.0000
    36 H36     -1.0425   3.7545  -1.6680   H         1 1      0.0000
    37 OL3     -0.9846   2.1302   1.6616   O.2       1 1      0.0000
    38 OL4     -1.1060   1.9589  -0.5688   O.3       1 1      0.0000
    39 C39     -2.7979   3.6300  -0.4763   C.3       1 1      0.0000
    40 H40     -3.1113   3.2832   0.5062   H         1 1      0.0000
    41 H41     -3.0284   4.6907  -0.5507   H         1 1      0.0000
    42 H42     -3.3847   3.1023  -1.2252   H         1 1      0.0000
@<TRIPOS>BOND
     1     1     2   ar
     2     1     6   ar
     3     1    11    1
     4     2     3   ar
     5     2     7    1
     6     3     4   ar
     7     3     8    1
     8     4     5   ar
     9     4    14    1
    10     5     6   ar
    11     5     9    1
    12     6    10    1
    13    11    12    2
    14    11    13    2
    15    14    15    1
    16    14    23    1
    17    14    33    1
    18    15    16    1
    19    15    17    1
    20    15    18    1
    21    18    19    1
    22    18    25    1
    23    18    31    1
    24    19    20    1
    25    19    21    1
    26    19    22    1
    27    23    24    1
    28    25    26    1
    29    25    27    1
    30    27    28    1
    31    27    29    1
    32    27    30    1
    33    31    32    1
    34    33    37    2
    35    33    38    1
    36    34    35    1
    37    34    36    1
    38    34    38    1
    39    34    39    1
    40    39    40    1
    41    39    41    1
    42    39    42    1
@<TRIPOS>SUBSTRUCTURE
     1 1           1 GROUP             0 ****  ****    0  
@<TRIPOS>MOLECULE
Molecule Name_00219
    42    42     1     0     0
SMALL
NO_CHARGES
****
Generated from the CSD

@<TRIPOS>ATOM
     1 C1       2.9434  -0.7868  -0.1439   C.ar      1 1      0.0000
     2 C2       2.3784  -1.2925   1.0057   C.ar      1 1      0.0000
     3 C3       1.0906  -0.9091   1.3336   C.ar      1 1      0.0000
     4 C4       0.3689  -0.0312   0.5324   C.ar      1 1      0.0000
     5 C5       0.9768   0.4522  -0.6210   C.ar      1 1      0.0000
     6 C6       2.2634   0.0821  -0.9681   C.ar      1 1      0.0000
     7 H7       2.9315  -1.9769   1.6404   H         1 1      0.0000
     8 H8       0.6382  -1.3055   2.2360   H         1 1      0.0000
     9 H9       0.4336   1.1344  -1.2663   H         1 1      0.0000
    10 H10      2.7269   0.4679  -1.8700   H         1 1      0.0000
    11 N11      4.3101  -1.1857  -0.5014   N.pl3     1 1      0.0000
    12 O12      4.7971  -0.7288  -1.5237   O.2       1 1      0.0000
    13 O13      4.8997  -1.9569   0.2395   O.2       1 1      0.0000
    14 CL3     -1.0507   0.3966   0.9072   C.3       1 1      0.0000
    15 CL1     -2.0725  -0.0934  -0.1578   C.3       1 1      0.0000
    16 H16     -3.0732   0.2489   0.1324   H         1 1      0.0000
    17 H17     -1.8351   0.3921  -1.1124   H         1 1      0.0000
    18 CL      -2.1281  -1.6129  -0.3950   C.3       1 1      0.0000
    19 CL2     -3.5504  -2.0053  -0.7508   C.3       1 1      0.0000
    20 H20     -3.5837  -3.0186  -1.1456   H         1 1      0.0000
    21 H21     -4.1932  -1.9618   0.1260   H         1 1      0.0000
    22 H22     -3.9586  -1.3345  -1.5039   H         1 1      0.0000
    23 OL2     -1.3467  -0.1508   2.1859   O.3       1 1      0.0000
    24 H24     -2.2474   0.1437   2.4691   H         1 1      0.0000
    25 N25     -1.2645  -1.9825  -1.4857   N.3       1 1      0.0000
    26 H26     -1.3167  -2.9970  -1.5780   H         1 1      0.0000
    27 C27     -1.5719  -1.4156  -2.7999   C.3       1 1      0.0000
    28 H28     -1.3012  -0.3625  -2.8385   H         1 1      0.0000
    29 H29     -1.0230  -1.9356  -3.5822   H         1 1      0.0000
    30 H30     -2.6345  -1.5006  -3.0176   H         1 1      0.0000
    31 OL1     -1.7908  -2.2919   0.8087   O.3       1 1      0.0000
    32 H32     -1.8512  -3.2683   0.6633   H         1 1      0.0000
    33 CL4     -1.0012   1.9353   0.9908   C.2       1 1      0.0000
    34 C34     -1.3076   3.9578  -0.2100   C.3       1 1      0.0000
    35 H35     -0.4882   4.3485   0.4059   H         1 1      0.0000
    36 H36     -1.1478   4.3060  -1.2380   H         1 1      0.0000
    37 OL3     -0.7083   2.5364   1.9875   O.2       1 1      0.0000
    38 OL4     -1.3201   2.5003  -0.1673   O.3       1 1      0.0000
    39 C39     -2.6086   4.4460   0.2994   C.3       1 1      0.0000
    40 H40     -2.7711   4.1143   1.3227   H         1 1      0.0000
    41 H41     -2.6447   5.5333   0.2857   H         1 1      0.0000
    42 H42     -3.4271   4.0720  -0.3122   H         1 1      0.0000
@<TRIPOS>BOND
     1     1     2   ar
     2     1     6   ar
     3     1    11    1
     4     2     3   ar
     5     2     7    1
     6     3     4   ar
     7     3     8    1
     8     4     5   ar
     9     4    14    1
    10     5     6   ar
    11     5     9    1
    12     6    10    1
    13    11    12    2
    14    11    13    2
    15    14    15    1
    16    14    23    1
    17    14    33    1
    18    15    16    1
    19    15    17    1
    20    15    18    1
    21    18    19    1
    22    18    25    1
    23    18    31    1
    24    19    20    1
    25    19    21    1
    26    19    22    1
    27    23    24    1
    28    25    26    1
    29    25    27    1
    30    27    28    1
    31    27    29    1
    32    27    30    1
    33    31    32    1
    34    33    37    2
    35    33    38    1
    36    34    35    1
    37    34    36    1
    38    34    38    1
    39    34    39    1
    40    39    40    1
    41    39    41    1
    42    39    42    1
@<TRIPOS>SUBSTRUCTURE
     1 1           1 GROUP             0 ****  ****    0  
@<TRIPOS>MOLECULE
Molecule Name_00220
    42    42     1     0     0
SMALL
NO_CHARGES
****
Generated from the CSD

@<TRIPOS>ATOM
     1 C1       2.8586  -0.6212  -0.1769   C.ar      1 1      0.0000
     2 C2       2.3409  -1.2053   0.9577   C.ar      1 1      0.0000
     3 C3       1.0386  -0.9104   1.3180   C.ar      1 1      0.0000
     4 C4       0.2560  -0.0432   0.5638   C.ar      1 1      0.0000
     5 C5       0.8176   0.5213  -0.5761   C.ar      1 1      0.0000
     6 C6       2.1178   0.2404  -0.9550   C.ar      1 1      0.0000
     7 H7       2.9417  -1.8823   1.5560   H         1 1      0.0000
     8 H8       0.6234  -1.3689   2.2089   H         1 1      0.0000
     9 H9       0.2267   1.1972  -1.1852   H         1 1      0.0000
    10 H10      2.5447   0.6889  -1.8460   H         1 1      0.0000
    11 N11      4.2401  -0.9259  -0.5684   N.pl3     1 1      0.0000
    12 O12      4.6846  -0.4001  -1.5770   O.2       1 1      0.0000
    13 O13      4.8840  -1.6917   0.1317   O.2       1 1      0.0000
    14 CL3     -1.1798   0.2866   0.9745   C.3       1 1      0.0000
    15 CL1     -2.1883  -0.2172  -0.0967   C.3       1 1      0.0000
    16 H16     -3.2022   0.0549   0.2205   H         1 1      0.0000
    17 H17     -1.9935   0.3200  -1.0331   H         1 1      0.0000
    18 CL      -2.1610  -1.7263  -0.3967   C.3       1 1      0.0000
    19 CL2     -3.5639  -2.1848  -0.7501   C.3       1 1      0.0000
    20 H20     -3.5456  -3.1812  -1.1865   H         1 1      0.0000
    21 H21     -4.1946  -2.2144   0.1360   H         1 1      0.0000
    22 H22     -4.0212  -1.5082  -1.4691   H         1 1      0.0000
    23 OL2     -1.4245  -0.3290   2.2329   O.3       1 1      0.0000
    24 H24     -2.3360  -0.0986   2.5398   H         1 1      0.0000
    25 N25     -1.2946  -2.0005  -1.5130   N.3       1 1      0.0000
    26 H26     -1.2904  -3.0117  -1.6470   H         1 1      0.0000
    27 C27     -1.6538  -1.3987  -2.7982   C.3       1 1      0.0000
    28 H28     -1.4441  -0.3311  -2.7962   H         1 1      0.0000
    29 H29     -1.0883  -1.8537  -3.6087   H         1 1      0.0000
    30 H30     -2.7131  -1.5355  -3.0054   H         1 1      0.0000
    31 OL1     -1.7672  -2.4336   0.7731   O.3       1 1      0.0000
    32 H32     -1.7742  -3.4051   0.5877   H         1 1      0.0000
    33 CL4     -1.2165   1.8209   1.1219   C.2       1 1      0.0000
    34 C34     -1.6558   3.8701   0.0109   C.3       1 1      0.0000
    35 H35     -2.3521   4.2257  -0.7586   H         1 1      0.0000
    36 H36     -2.0253   4.2199   0.9828   H         1 1      0.0000
    37 OL3     -0.9430   2.3963   2.1390   O.2       1 1      0.0000
    38 OL4     -1.5848   2.4137  -0.0073   O.3       1 1      0.0000
    39 C39     -0.2980   4.4018  -0.2421   C.3       1 1      0.0000
    40 H40      0.0727   4.0686  -1.2092   H         1 1      0.0000
    41 H41     -0.3029   5.4898  -0.2376   H         1 1      0.0000
    42 H42      0.3977   4.0628   0.5227   H         1 1      0.0000
@<TRIPOS>BOND
     1     1     2   ar
     2     1     6   ar
     3     1    11    1
     4     2     3   ar
     5     2     7    1
     6     3     4   ar
     7     3     8    1
     8     4     5   ar
     9     4    14    1
    10     5     6   ar
    11     5     9    1
    12     6    10    1
    13    11    12    2
    14    11    13    2
    15    14    15    1
    16    14    23    1
    17    14    33    1
    18    15    16    1
    19    15    17    1
    20    15    18    1
    21    18    19    1
    22    18    25    1
    23    18    31    1
    24    19    20    1
    25    19    21    1
    26    19    22    1
    27    23    24    1
    28    25    26    1
    29    25    27    1
    30    27    28    1
    31    27    29    1
    32    27    30    1
    33    31    32    1
    34    33    37    2
    35    33    38    1
    36    34    35    1
    37    34    36    1
    38    34    38    1
    39    34    39    1
    40    39    40    1
    41    39    41    1
    42    39    42    1
@<TRIPOS>SUBSTRUCTURE
     1 1           1 GROUP             0 ****  ****    0  
@<TRIPOS>MOLECULE
Molecule Name_00221
    42    42     1     0     0
SMALL
NO_CHARGES
****
Generated from the CSD

@<TRIPOS>ATOM
     1 C1       3.5533  -0.4896  -0.0713   C.ar      1 1      0.0000
     2 C2       2.9894  -1.1603   0.9911   C.ar      1 1      0.0000
     3 C3       1.6253  -1.0527   1.1922   C.ar      1 1      0.0000
     4 C4       0.8263  -0.2862   0.3511   C.ar      1 1      0.0000
     5 C5       1.4367   0.3711  -0.7113   C.ar      1 1      0.0000
     6 C6       2.7990   0.2774  -0.9312   C.ar      1 1      0.0000
     7 H7       3.6020  -1.7602   1.6560   H         1 1      0.0000
     8 H8       1.1739  -1.5804   2.0254   H         1 1      0.0000
     9 H9       0.8353   0.9715  -1.3857   H         1 1      0.0000
    10 H10      3.2632   0.7968  -1.7630   H         1 1      0.0000
    11 N11      5.0004  -0.5955  -0.2939   N.pl3     1 1      0.0000
    12 O12      5.4853   0.0050  -1.2402   O.2       1 1      0.0000
    13 O13      5.6554  -1.2795   0.4770   O.2       1 1      0.0000
    14 CL3     -0.6798  -0.1633   0.5862   C.3       1 1      0.0000
    15 CL1     -1.4744  -0.7795  -0.6001   C.3       1 1      0.0000
    16 H16     -1.2226  -0.2292  -1.5146   H         1 1      0.0000
    17 H17     -1.1314  -1.8113  -0.7457   H         1 1      0.0000
    18 CL      -3.0059  -0.8013  -0.4515   C.3       1 1      0.0000
    19 CL2     -3.5747   0.4889  -1.0130   C.3       1 1      0.0000
    20 H20     -4.5339   0.3103  -1.4943   H         1 1      0.0000
    21 H21     -3.7234   1.2212  -0.2222   H         1 1      0.0000
    22 H22     -2.9003   0.9189  -1.7506   H         1 1      0.0000
    23 OL2     -0.9858  -0.8303   1.8044   O.3       1 1      0.0000
    24 H24     -1.9504  -0.7322   1.9996   H         1 1      0.0000
    25 N25     -3.5657  -1.9062  -1.1849   N.3       1 1      0.0000
    26 H26     -3.2914  -1.7874  -2.1602   H         1 1      0.0000
    27 C27     -3.1501  -3.2510  -0.7828   C.3       1 1      0.0000
    28 H28     -3.0999  -3.3312   0.3011   H         1 1      0.0000
    29 H29     -3.8542  -3.9969  -1.1456   H         1 1      0.0000
    30 H30     -2.1677  -3.4878  -1.1860   H         1 1      0.0000
    31 OL1     -3.3462  -0.8478   0.9290   O.3       1 1      0.0000
    32 H32     -4.3305  -0.8361   1.0254   H         1 1      0.0000
    33 CL4     -0.9449   1.3486   0.7318   C.2       1 1      0.0000
    34 C34     -1.3978   3.3629  -0.4360   C.3       1 1      0.0000
    35 H35     -0.7569   3.8432   0.3136   H         1 1      0.0000
    36 H36     -1.1462   3.7913  -1.4141   H         1 1      0.0000
    37 OL3     -0.9422   1.9242   1.7849   O.2       1 1      0.0000
    38 OL4     -1.1729   1.9222  -0.4435   O.3       1 1      0.0000
    39 C39     -2.8235   3.6062  -0.1221   C.3       1 1      0.0000
    40 H40     -3.0890   3.1618   0.8348   H         1 1      0.0000
    41 H41     -3.0302   4.6731  -0.0692   H         1 1      0.0000
    42 H42     -3.4659   3.1740  -0.8864   H         1 1      0.0000
@<TRIPOS>BOND
     1     1     2   ar
     2     1     6   ar
     3     1    11    1
     4     2     3   ar
     5     2     7    1
     6     3     4   ar
     7     3     8    1
     8     4     5   ar
     9     4    14    1
    10     5     6   ar
    11     5     9    1
    12     6    10    1
    13    11    12    2
    14    11    13    2
    15    14    15    1
    16    14    23    1
    17    14    33    1
    18    15    16    1
    19    15    17    1
    20    15    18    1
    21    18    19    1
    22    18    25    1
    23    18    31    1
    24    19    20    1
    25    19    21    1
    26    19    22    1
    27    23    24    1
    28    25    26    1
    29    25    27    1
    30    27    28    1
    31    27    29    1
    32    27    30    1
    33    31    32    1
    34    33    37    2
    35    33    38    1
    36    34    35    1
    37    34    36    1
    38    34    38    1
    39    34    39    1
    40    39    40    1
    41    39    41    1
    42    39    42    1
@<TRIPOS>SUBSTRUCTURE
     1 1           1 GROUP             0 ****  ****    0  
@<TRIPOS>MOLECULE
Molecule Name_00222
    42    42     1     0     0
SMALL
NO_CHARGES
****
Generated from the CSD

@<TRIPOS>ATOM
     1 C1       3.4920  -0.2614  -0.0703   C.ar      1 1      0.0000
     2 C2       2.8344   0.9025  -0.4013   C.ar      1 1      0.0000
     3 C3       1.4610   0.9533  -0.2461   C.ar      1 1      0.0000
     4 C4       0.7441  -0.1388   0.2301   C.ar      1 1      0.0000
     5 C5       1.4486  -1.2925   0.5555   C.ar      1 1      0.0000
     6 C6       2.8219  -1.3652   0.4082   C.ar      1 1      0.0000
     7 H7       3.3819   1.7612  -0.7757   H         1 1      0.0000
     8 H8       0.9369   1.8676  -0.5022   H         1 1      0.0000
     9 H9       0.9138  -2.1571   0.9342   H         1 1      0.0000
    10 H10      3.3595  -2.2722   0.6643   H         1 1      0.0000
    11 N11      4.9494  -0.3272  -0.2320   N.pl3     1 1      0.0000
    12 O12      5.5179  -1.3661   0.0658   O.2       1 1      0.0000
    13 O13      5.5291   0.6599  -0.6573   O.2       1 1      0.0000
    14 CL3     -0.7759  -0.0788   0.3888   C.3       1 1      0.0000
    15 CL1     -1.4599  -1.2104  -0.4298   C.3       1 1      0.0000
    16 H16     -1.4439  -0.9346  -1.4911   H         1 1      0.0000
    17 H17     -0.8570  -2.1213  -0.3292   H         1 1      0.0000
    18 CL      -2.9086  -1.5501  -0.0372   C.3       1 1      0.0000
    19 CL2     -3.7513  -0.2907  -0.1226   C.3       1 1      0.0000
    20 H20     -4.8066  -0.5235   0.0038   H         1 1      0.0000
    21 H21     -3.4654   0.4179   0.6519   H         1 1      0.0000
    22 H22     -3.6245   0.1935  -1.0886   H         1 1      0.0000
    23 OL2     -1.0738  -0.2017   1.7740   O.3       1 1      0.0000
    24 H24     -2.0461  -0.0853   1.9126   H         1 1      0.0000
    25 N25     -3.4562  -2.5298  -0.9384   N.3       1 1      0.0000
    26 H26     -2.8545  -3.3519  -0.8881   H         1 1      0.0000
    27 C27     -4.8240  -2.9824  -0.6785   C.3       1 1      0.0000
    28 H28     -5.5331  -2.1700  -0.8232   H         1 1      0.0000
    29 H29     -5.0961  -3.7935  -1.3507   H         1 1      0.0000
    30 H30     -4.9238  -3.3414   0.3436   H         1 1      0.0000
    31 OL1     -2.9411  -1.9896   1.3154   O.3       1 1      0.0000
    32 H32     -3.8784  -2.1531   1.5854   H         1 1      0.0000
    33 CL4     -1.1808   1.3207  -0.1156   C.2       1 1      0.0000
    34 C34     -1.3307   3.6205   0.4454   C.3       1 1      0.0000
    35 H35     -2.2279   3.6289  -0.1858   H         1 1      0.0000
    36 H36     -1.5503   4.2083   1.3452   H         1 1      0.0000
    37 OL3     -1.6204   1.5288  -1.2128   O.2       1 1      0.0000
    38 OL4     -0.9826   2.2521   0.8093   O.3       1 1      0.0000
    39 C39     -0.1859   4.2099  -0.2843   C.3       1 1      0.0000
    40 H40      0.0325   3.6394  -1.1846   H         1 1      0.0000
    41 H41     -0.4017   5.2353  -0.5769   H         1 1      0.0000
    42 H42      0.7064   4.2157   0.3381   H         1 1      0.0000
@<TRIPOS>BOND
     1     1     2   ar
     2     1     6   ar
     3     1    11    1
     4     2     3   ar
     5     2     7    1
     6     3     4   ar
     7     3     8    1
     8     4     5   ar
     9     4    14    1
    10     5     6   ar
    11     5     9    1
    12     6    10    1
    13    11    12    2
    14    11    13    2
    15    14    15    1
    16    14    23    1
    17    14    33    1
    18    15    16    1
    19    15    17    1
    20    15    18    1
    21    18    19    1
    22    18    25    1
    23    18    31    1
    24    19    20    1
    25    19    21    1
    26    19    22    1
    27    23    24    1
    28    25    26    1
    29    25    27    1
    30    27    28    1
    31    27    29    1
    32    27    30    1
    33    31    32    1
    34    33    37    2
    35    33    38    1
    36    34    35    1
    37    34    36    1
    38    34    38    1
    39    34    39    1
    40    39    40    1
    41    39    41    1
    42    39    42    1
@<TRIPOS>SUBSTRUCTURE
     1 1           1 GROUP             0 ****  ****    0  
@<TRIPOS>MOLECULE
Molecule Name_00223
    42    42     1     0     0
SMALL
NO_CHARGES
****
Generated from the CSD

@<TRIPOS>ATOM
     1 C1       3.4304  -0.3242  -0.0508   C.ar      1 1      0.0000
     2 C2       2.7709   0.8100  -0.4693   C.ar      1 1      0.0000
     3 C3       1.4022   0.8850  -0.2852   C.ar      1 1      0.0000
     4 C4       0.6918  -0.1540   0.3056   C.ar      1 1      0.0000
     5 C5       1.3982  -1.2789   0.7165   C.ar      1 1      0.0000
     6 C6       2.7669  -1.3751   0.5423   C.ar      1 1      0.0000
     7 H7       3.3133   1.6271  -0.9335   H         1 1      0.0000
     8 H8       0.8766   1.7764  -0.6099   H         1 1      0.0000
     9 H9       0.8686  -2.1017   1.1851   H         1 1      0.0000
    10 H10      3.3061  -2.2593   0.8660   H         1 1      0.0000
    11 N11      4.8830  -0.4155  -0.2421   N.pl3     1 1      0.0000
    12 O12      5.4533  -1.4275   0.1343   O.2       1 1      0.0000
    13 O13      5.4569   0.5247  -0.7693   O.2       1 1      0.0000
    14 CL3     -0.8232  -0.0684   0.4960   C.3       1 1      0.0000
    15 CL1     -1.5339  -1.2645  -0.1987   C.3       1 1      0.0000
    16 H16     -1.5440  -1.0862  -1.2808   H         1 1      0.0000
    17 H17     -0.9331  -2.1669  -0.0311   H         1 1      0.0000
    18 CL      -2.9736  -1.5566   0.2597   C.3       1 1      0.0000
    19 CL2     -3.8127  -0.3050   0.0788   C.3       1 1      0.0000
    20 H20     -4.8667  -0.5203   0.2420   H         1 1      0.0000
    21 H21     -3.5113   0.4667   0.7841   H         1 1      0.0000
    22 H22     -3.7000   0.0929  -0.9276   H         1 1      0.0000
    23 OL2     -1.0864  -0.0625   1.8936   O.3       1 1      0.0000
    24 H24     -2.0540   0.0748   2.0453   H         1 1      0.0000
    25 N25     -3.5483  -2.6120  -0.5327   N.3       1 1      0.0000
    26 H26     -4.4907  -2.7734  -0.1774   H         1 1      0.0000
    27 C27     -3.6670  -2.3744  -1.9723   C.3       1 1      0.0000
    28 H28     -2.6870  -2.2262  -2.4209   H         1 1      0.0000
    29 H29     -4.1408  -3.2209  -2.4651   H         1 1      0.0000
    30 H30     -4.2672  -1.4885  -2.1688   H         1 1      0.0000
    31 OL1     -2.9735  -1.8685   1.6477   O.3       1 1      0.0000
    32 H32     -3.9017  -2.0313   1.9480   H         1 1      0.0000
    33 CL4     -1.2335   1.2825  -0.1236   C.2       1 1      0.0000
    34 C34     -1.3583   3.6248   0.2297   C.3       1 1      0.0000
    35 H35     -2.2706   3.5822  -0.3780   H         1 1      0.0000
    36 H36     -1.5528   4.2933   1.0774   H         1 1      0.0000
    37 OL3     -1.6989   1.3934  -1.2243   O.2       1 1      0.0000
    38 OL4     -1.0081   2.2925   0.7079   O.3       1 1      0.0000
    39 C39     -0.2288   4.1373  -0.5778   C.3       1 1      0.0000
    40 H40     -0.0354   3.4859  -1.4275   H         1 1      0.0000
    41 H41     -0.4467   5.1335  -0.9571   H         1 1      0.0000
    42 H42      0.6785   4.1932   0.0199   H         1 1      0.0000
@<TRIPOS>BOND
     1     1     2   ar
     2     1     6   ar
     3     1    11    1
     4     2     3   ar
     5     2     7    1
     6     3     4   ar
     7     3     8    1
     8     4     5   ar
     9     4    14    1
    10     5     6   ar
    11     5     9    1
    12     6    10    1
    13    11    12    2
    14    11    13    2
    15    14    15    1
    16    14    23    1
    17    14    33    1
    18    15    16    1
    19    15    17    1
    20    15    18    1
    21    18    19    1
    22    18    25    1
    23    18    31    1
    24    19    20    1
    25    19    21    1
    26    19    22    1
    27    23    24    1
    28    25    26    1
    29    25    27    1
    30    27    28    1
    31    27    29    1
    32    27    30    1
    33    31    32    1
    34    33    37    2
    35    33    38    1
    36    34    35    1
    37    34    36    1
    38    34    38    1
    39    34    39    1
    40    39    40    1
    41    39    41    1
    42    39    42    1
@<TRIPOS>SUBSTRUCTURE
     1 1           1 GROUP             0 ****  ****    0  
@<TRIPOS>MOLECULE
Molecule Name_00224
    42    42     1     0     0
SMALL
NO_CHARGES
****
Generated from the CSD

@<TRIPOS>ATOM
     1 C1       3.3869  -0.3499  -0.0772   C.ar      1 1      0.0000
     2 C2       2.7716   0.8349  -0.4156   C.ar      1 1      0.0000
     3 C3       1.4024   0.9397  -0.2506   C.ar      1 1      0.0000
     4 C4       0.6481  -0.1192   0.2426   C.ar      1 1      0.0000
     5 C5       1.3107  -1.2956   0.5749   C.ar      1 1      0.0000
     6 C6       2.6790  -1.4223   0.4181   C.ar      1 1      0.0000
     7 H7       3.3485   1.6680  -0.8032   H         1 1      0.0000
     8 H8       0.9115   1.8706  -0.5124   H         1 1      0.0000
     9 H9       0.7463  -2.1351   0.9667   H         1 1      0.0000
    10 H10      3.1837  -2.3465   0.6796   H         1 1      0.0000
    11 N11      4.8395  -0.4730  -0.2492   N.pl3     1 1      0.0000
    12 O12      5.3702  -1.5298   0.0553   O.2       1 1      0.0000
    13 O13      5.4530   0.4867  -0.6893   O.2       1 1      0.0000
    14 CL3     -0.8671   0.0005   0.4121   C.3       1 1      0.0000
    15 CL1     -1.6002  -1.1130  -0.3885   C.3       1 1      0.0000
    16 H16     -1.5824  -0.8496  -1.4529   H         1 1      0.0000
    17 H17     -1.0316  -2.0451  -0.2824   H         1 1      0.0000
    18 CL      -3.0575  -1.3930   0.0190   C.3       1 1      0.0000
    19 CL2     -3.8528  -0.1038  -0.0753   C.3       1 1      0.0000
    20 H20     -4.9161  -0.2964   0.0517   H         1 1      0.0000
    21 H21     -3.5413   0.5987   0.6949   H         1 1      0.0000
    22 H22     -3.7074   0.3691  -1.0443   H         1 1      0.0000
    23 OL2     -1.1584  -0.0957   1.8007   O.3       1 1      0.0000
    24 H24     -2.1243   0.0599   1.9455   H         1 1      0.0000
    25 N25     -3.6489  -2.3619  -0.8662   N.3       1 1      0.0000
    26 H26     -3.6275  -1.9622  -1.8044   H         1 1      0.0000
    27 C27     -3.0041  -3.6738  -0.9436   C.3       1 1      0.0000
    28 H28     -2.9946  -4.1570   0.0311   H         1 1      0.0000
    29 H29     -3.5327  -4.3230  -1.6386   H         1 1      0.0000
    30 H30     -1.9753  -3.5784  -1.2847   H         1 1      0.0000
    31 OL1     -3.0959  -1.8150   1.3770   O.3       1 1      0.0000
    32 H32     -4.0347  -1.9705   1.6465   H         1 1      0.0000
    33 CL4     -1.2224   1.4089  -0.1050   C.2       1 1      0.0000
    34 C34     -1.2819   3.7186   0.4318   C.3       1 1      0.0000
    35 H35     -2.1823   3.7540  -0.1937   H         1 1      0.0000
    36 H36     -1.4730   4.3238   1.3266   H         1 1      0.0000
    37 OL3     -1.6613   1.6217  -1.2016   O.2       1 1      0.0000
    38 OL4     -0.9830   2.3419   0.8084   O.3       1 1      0.0000
    39 C39     -0.1206   4.2565  -0.3116   C.3       1 1      0.0000
    40 H40      0.0700   3.6685  -1.2070   H         1 1      0.0000
    41 H41     -0.2997   5.2862  -0.6140   H         1 1      0.0000
    42 H42      0.7755   4.2352   0.3050   H         1 1      0.0000
@<TRIPOS>BOND
     1     1     2   ar
     2     1     6   ar
     3     1    11    1
     4     2     3   ar
     5     2     7    1
     6     3     4   ar
     7     3     8    1
     8     4     5   ar
     9     4    14    1
    10     5     6   ar
    11     5     9    1
    12     6    10    1
    13    11    12    2
    14    11    13    2
    15    14    15    1
    16    14    23    1
    17    14    33    1
    18    15    16    1
    19    15    17    1
    20    15    18    1
    21    18    19    1
    22    18    25    1
    23    18    31    1
    24    19    20    1
    25    19    21    1
    26    19    22    1
    27    23    24    1
    28    25    26    1
    29    25    27    1
    30    27    28    1
    31    27    29    1
    32    27    30    1
    33    31    32    1
    34    33    37    2
    35    33    38    1
    36    34    35    1
    37    34    36    1
    38    34    38    1
    39    34    39    1
    40    39    40    1
    41    39    41    1
    42    39    42    1
@<TRIPOS>SUBSTRUCTURE
     1 1           1 GROUP             0 ****  ****    0  
@<TRIPOS>MOLECULE
Molecule Name_00225
    42    42     1     0     0
SMALL
NO_CHARGES
****
Generated from the CSD

@<TRIPOS>ATOM
     1 C1       3.5965  -0.4111  -0.0456   C.ar      1 1      0.0000
     2 C2       2.9979   0.7579  -0.4600   C.ar      1 1      0.0000
     3 C3       1.6265   0.8811  -0.3291   C.ar      1 1      0.0000
     4 C4       0.8538  -0.1443   0.2047   C.ar      1 1      0.0000
     5 C5       1.5000  -1.3056   0.6135   C.ar      1 1      0.0000
     6 C6       2.8701  -1.4503   0.4920   C.ar      1 1      0.0000
     7 H7       3.5893   1.5648  -0.8799   H         1 1      0.0000
     8 H8       1.1487   1.7999  -0.6508   H         1 1      0.0000
     9 H9       0.9209  -2.1188   1.0384   H         1 1      0.0000
    10 H10      3.3618  -2.3625   0.8134   H         1 1      0.0000
    11 N11      5.0512  -0.5536  -0.1807   N.pl3     1 1      0.0000
    12 O12      5.5671  -1.5961   0.1912   O.2       1 1      0.0000
    13 O13      5.6813   0.3766  -0.6591   O.2       1 1      0.0000
    14 CL3     -0.6635  -0.0049   0.3363   C.3       1 1      0.0000
    15 CL1     -1.3893  -1.1544  -0.4189   C.3       1 1      0.0000
    16 H16     -1.3476  -0.9485  -1.4952   H         1 1      0.0000
    17 H17     -0.8307  -2.0836  -0.2513   H         1 1      0.0000
    18 CL      -2.8569  -1.4017  -0.0275   C.3       1 1      0.0000
    19 CL2     -3.6391  -0.1133  -0.2056   C.3       1 1      0.0000
    20 H20     -4.7055  -0.2891  -0.0807   H         1 1      0.0000
    21 H21     -3.3301   0.6299   0.5264   H         1 1      0.0000
    22 H22     -3.4780   0.3015  -1.1985   H         1 1      0.0000
    23 OL2     -0.9836  -0.0248   1.7218   O.3       1 1      0.0000
    24 H24     -1.9510   0.1446   1.8380   H         1 1      0.0000
    25 N25     -3.4385  -2.4114  -0.8727   N.3       1 1      0.0000
    26 H26     -2.8763  -3.2551  -0.7610   H         1 1      0.0000
    27 C27     -4.8289  -2.7835  -0.6052   C.3       1 1      0.0000
    28 H28     -5.4981  -1.9521  -0.8166   H         1 1      0.0000
    29 H29     -5.1287  -3.6259  -1.2249   H         1 1      0.0000
    30 H30     -4.9587  -3.0665   0.4373   H         1 1      0.0000
    31 OL1     -2.9263  -1.7514   1.3497   O.3       1 1      0.0000
    32 H32     -3.8734  -1.8539   1.6154   H         1 1      0.0000
    33 CL4     -0.9967   1.3763  -0.2624   C.2       1 1      0.0000
    34 C34     -1.0464   3.7118   0.1488   C.3       1 1      0.0000
    35 H35     -0.4458   4.4339   0.7156   H         1 1      0.0000
    36 H36     -0.7836   3.8181  -0.9110   H         1 1      0.0000
    37 OL3     -1.4127   1.5332  -1.3771   O.2       1 1      0.0000
    38 OL4     -0.7667   2.3552   0.6043   O.3       1 1      0.0000
    39 C39     -2.4887   3.9777   0.3477   C.3       1 1      0.0000
    40 H40     -2.7567   3.8850   1.3981   H         1 1      0.0000
    41 H41     -2.7444   4.9832   0.0201   H         1 1      0.0000
    42 H42     -3.0927   3.2726  -0.2196   H         1 1      0.0000
@<TRIPOS>BOND
     1     1     2   ar
     2     1     6   ar
     3     1    11    1
     4     2     3   ar
     5     2     7    1
     6     3     4   ar
     7     3     8    1
     8     4     5   ar
     9     4    14    1
    10     5     6   ar
    11     5     9    1
    12     6    10    1
    13    11    12    2
    14    11    13    2
    15    14    15    1
    16    14    23    1
    17    14    33    1
    18    15    16    1
    19    15    17    1
    20    15    18    1
    21    18    19    1
    22    18    25    1
    23    18    31    1
    24    19    20    1
    25    19    21    1
    26    19    22    1
    27    23    24    1
    28    25    26    1
    29    25    27    1
    30    27    28    1
    31    27    29    1
    32    27    30    1
    33    31    32    1
    34    33    37    2
    35    33    38    1
    36    34    35    1
    37    34    36    1
    38    34    38    1
    39    34    39    1
    40    39    40    1
    41    39    41    1
    42    39    42    1
@<TRIPOS>SUBSTRUCTURE
     1 1           1 GROUP             0 ****  ****    0  
@<TRIPOS>MOLECULE
Molecule Name_00226
    42    42     1     0     0
SMALL
NO_CHARGES
****
Generated from the CSD

@<TRIPOS>ATOM
     1 C1       3.5306  -0.4760  -0.0255   C.ar      1 1      0.0000
     2 C2       2.9296   0.6537  -0.5344   C.ar      1 1      0.0000
     3 C3       1.5638   0.8044  -0.3765   C.ar      1 1      0.0000
     4 C4       0.7990  -0.1554   0.2770   C.ar      1 1      0.0000
     5 C5       1.4473  -1.2786   0.7783   C.ar      1 1      0.0000
     6 C6       2.8119  -1.4497   0.6318   C.ar      1 1      0.0000
     7 H7       3.5148   1.4093  -1.0480   H         1 1      0.0000
     8 H8       1.0842   1.6930  -0.7723   H         1 1      0.0000
     9 H9       0.8745  -2.0401   1.2970   H         1 1      0.0000
    10 H10      3.3055  -2.3318   1.0262   H         1 1      0.0000
    11 N11      4.9794  -0.6473  -0.1882   N.pl3     1 1      0.0000
    12 O12      5.4975  -1.6543   0.2686   O.2       1 1      0.0000
    13 O13      5.6026   0.2249  -0.7731   O.2       1 1      0.0000
    14 CL3     -0.7125   0.0130   0.4383   C.3       1 1      0.0000
    15 CL1     -1.4702  -1.1966  -0.1791   C.3       1 1      0.0000
    16 H16     -1.4596  -1.0970  -1.2712   H         1 1      0.0000
    17 H17     -0.9142  -2.1110   0.0619   H         1 1      0.0000
    18 CL      -2.9271  -1.3885   0.2778   C.3       1 1      0.0000
    19 CL2     -3.7048  -0.1163  -0.0052   C.3       1 1      0.0000
    20 H20     -4.7694  -0.2708   0.1574   H         1 1      0.0000
    21 H21     -3.3759   0.6900   0.6471   H         1 1      0.0000
    22 H22     -3.5620   0.2018  -1.0358   H         1 1      0.0000
    23 OL2     -0.9911   0.1324   1.8278   O.3       1 1      0.0000
    24 H24     -1.9530   0.3244   1.9548   H         1 1      0.0000
    25 N25     -3.5413  -2.4713  -0.4450   N.3       1 1      0.0000
    26 H26     -4.4942  -2.5633  -0.0931   H         1 1      0.0000
    27 C27     -3.6323  -2.3337  -1.8996   C.3       1 1      0.0000
    28 H28     -2.6413  -2.2632  -2.3431   H         1 1      0.0000
    29 H29     -4.1392  -3.1912  -2.3371   H         1 1      0.0000
    30 H30     -4.1883  -1.4379  -2.1682   H         1 1      0.0000
    31 OL1     -2.9576  -1.5986   1.6845   O.3       1 1      0.0000
    32 H32     -3.8957  -1.6965   1.9819   H         1 1      0.0000
    33 CL4     -1.0522   1.3327  -0.2830   C.2       1 1      0.0000
    34 C34     -1.0716   3.6977  -0.1011   C.3       1 1      0.0000
    35 H35     -0.4491   4.4652   0.3753   H         1 1      0.0000
    36 H36     -0.8389   3.6973  -1.1731   H         1 1      0.0000
    37 OL3     -1.4992   1.3846  -1.3956   O.2       1 1      0.0000
    38 OL4     -0.7894   2.3890   0.4769   O.3       1 1      0.0000
    39 C39     -2.5053   3.9970   0.1114   C.3       1 1      0.0000
    40 H40     -2.7434   4.0101   1.1730   H         1 1      0.0000
    41 H41     -2.7625   4.9684  -0.3056   H         1 1      0.0000
    42 H42     -3.1311   3.2464  -0.3670   H         1 1      0.0000
@<TRIPOS>BOND
     1     1     2   ar
     2     1     6   ar
     3     1    11    1
     4     2     3   ar
     5     2     7    1
     6     3     4   ar
     7     3     8    1
     8     4     5   ar
     9     4    14    1
    10     5     6   ar
    11     5     9    1
    12     6    10    1
    13    11    12    2
    14    11    13    2
    15    14    15    1
    16    14    23    1
    17    14    33    1
    18    15    16    1
    19    15    17    1
    20    15    18    1
    21    18    19    1
    22    18    25    1
    23    18    31    1
    24    19    20    1
    25    19    21    1
    26    19    22    1
    27    23    24    1
    28    25    26    1
    29    25    27    1
    30    27    28    1
    31    27    29    1
    32    27    30    1
    33    31    32    1
    34    33    37    2
    35    33    38    1
    36    34    35    1
    37    34    36    1
    38    34    38    1
    39    34    39    1
    40    39    40    1
    41    39    41    1
    42    39    42    1
@<TRIPOS>SUBSTRUCTURE
     1 1           1 GROUP             0 ****  ****    0  
@<TRIPOS>MOLECULE
Molecule Name_00227
    42    42     1     0     0
SMALL
NO_CHARGES
****
Generated from the CSD

@<TRIPOS>ATOM
     1 C1       3.4875  -0.5006  -0.0530   C.ar      1 1      0.0000
     2 C2       2.9320   0.6878  -0.4723   C.ar      1 1      0.0000
     3 C3       1.5675   0.8654  -0.3335   C.ar      1 1      0.0000
     4 C4       0.7590  -0.1251   0.2130   C.ar      1 1      0.0000
     5 C5       1.3621  -1.3078   0.6265   C.ar      1 1      0.0000
     6 C6       2.7247  -1.5066   0.4972   C.ar      1 1      0.0000
     7 H7       3.5516   1.4679  -0.9022   H         1 1      0.0000
     8 H8       1.1236   1.7998  -0.6591   H         1 1      0.0000
     9 H9       0.7547  -2.0946   1.0612   H         1 1      0.0000
    10 H10      3.1827  -2.4349   0.8223   H         1 1      0.0000
    11 N11      4.9346  -0.7007  -0.1964   N.pl3     1 1      0.0000
    12 O12      5.4119  -1.7598   0.1801   O.2       1 1      0.0000
    13 O13      5.5972   0.2007  -0.6859   O.2       1 1      0.0000
    14 CL3     -0.7508   0.0743   0.3533   C.3       1 1      0.0000
    15 CL1     -1.5260  -1.0520  -0.3876   C.3       1 1      0.0000
    16 H16     -1.4838  -0.8563  -1.4658   H         1 1      0.0000
    17 H17     -1.0027  -2.0008  -0.2163   H         1 1      0.0000
    18 CL      -2.9993  -1.2390   0.0156   C.3       1 1      0.0000
    19 CL2     -3.7324   0.0770  -0.1691   C.3       1 1      0.0000
    20 H20     -4.8049  -0.0583  -0.0457   H         1 1      0.0000
    21 H21     -3.3972   0.8110   0.5607   H         1 1      0.0000
    22 H22     -3.5541   0.4817  -1.1632   H         1 1      0.0000
    23 OL2     -1.0620   0.0780   1.7410   O.3       1 1      0.0000
    24 H24     -2.0212   0.2865   1.8621   H         1 1      0.0000
    25 N25     -3.6252  -2.2328  -0.8166   N.3       1 1      0.0000
    26 H26     -3.5744  -1.8936  -1.7772   H         1 1      0.0000
    27 C27     -3.0414  -3.5753  -0.8040   C.3       1 1      0.0000
    28 H28     -3.0656  -3.9969   0.1986   H         1 1      0.0000
    29 H29     -3.5918  -4.2414  -1.4652   H         1 1      0.0000
    30 H30     -2.0055  -3.5485  -1.1356   H         1 1      0.0000
    31 OL1     -3.0727  -1.5736   1.3963   O.3       1 1      0.0000
    32 H32     -4.0207  -1.6688   1.6615   H         1 1      0.0000
    33 CL4     -1.0341   1.4626  -0.2545   C.2       1 1      0.0000
    34 C34     -0.9918   3.8015   0.1384   C.3       1 1      0.0000
    35 H35     -0.3607   4.5043   0.6962   H         1 1      0.0000
    36 H36     -0.7311   3.8894  -0.9236   H         1 1      0.0000
    37 OL3     -1.4501   1.6268  -1.3682   O.2       1 1      0.0000
    38 OL4     -0.7618   2.4386   0.6031   O.3       1 1      0.0000
    39 C39     -2.4217   4.1241   0.3429   C.3       1 1      0.0000
    40 H40     -2.6871   4.0499   1.3954   H         1 1      0.0000
    41 H41     -2.6404   5.1361   0.0087   H         1 1      0.0000
    42 H42     -3.0555   3.4384  -0.2156   H         1 1      0.0000
@<TRIPOS>BOND
     1     1     2   ar
     2     1     6   ar
     3     1    11    1
     4     2     3   ar
     5     2     7    1
     6     3     4   ar
     7     3     8    1
     8     4     5   ar
     9     4    14    1
    10     5     6   ar
    11     5     9    1
    12     6    10    1
    13    11    12    2
    14    11    13    2
    15    14    15    1
    16    14    23    1
    17    14    33    1
    18    15    16    1
    19    15    17    1
    20    15    18    1
    21    18    19    1
    22    18    25    1
    23    18    31    1
    24    19    20    1
    25    19    21    1
    26    19    22    1
    27    23    24    1
    28    25    26    1
    29    25    27    1
    30    27    28    1
    31    27    29    1
    32    27    30    1
    33    31    32    1
    34    33    37    2
    35    33    38    1
    36    34    35    1
    37    34    36    1
    38    34    38    1
    39    34    39    1
    40    39    40    1
    41    39    41    1
    42    39    42    1
@<TRIPOS>SUBSTRUCTURE
     1 1           1 GROUP             0 ****  ****    0  
@<TRIPOS>MOLECULE
Molecule Name_00228
    42    42     1     0     0
SMALL
NO_CHARGES
****
Generated from the CSD

@<TRIPOS>ATOM
     1 C1       2.9865  -0.5401  -0.3572   C.ar      1 1      0.0000
     2 C2       2.2002   0.2437  -1.1721   C.ar      1 1      0.0000
     3 C3       0.8849   0.4663  -0.8066   C.ar      1 1      0.0000
     4 C4       0.3515  -0.0838   0.3536   C.ar      1 1      0.0000
     5 C5       1.1820  -0.8659   1.1487   C.ar      1 1      0.0000
     6 C6       2.5001  -1.1014   0.8025   C.ar      1 1      0.0000
     7 H7       2.6037   0.6774  -2.0811   H         1 1      0.0000
     8 H8       0.2606   1.0848  -1.4421   H         1 1      0.0000
     9 H9       0.7921  -1.3026   2.0621   H         1 1      0.0000
    10 H10      3.1372  -1.7150   1.4309   H         1 1      0.0000
    11 N11      4.3836  -0.7841  -0.7357   N.pl3     1 1      0.0000
    12 O12      5.0678  -1.4812  -0.0028   O.2       1 1      0.0000
    13 O13      4.7999  -0.2794  -1.7668   O.2       1 1      0.0000
    14 CL3     -1.1068   0.1578   0.7457   C.3       1 1      0.0000
    15 CL1     -2.0230   0.1514  -0.5109   C.3       1 1      0.0000
    16 H16     -2.9537   0.6786  -0.2693   H         1 1      0.0000
    17 H17     -1.5274   0.7280  -1.3017   H         1 1      0.0000
    18 CL      -2.3815  -1.2322  -1.0813   C.3       1 1      0.0000
    19 CL2     -1.1060  -1.9373  -1.5046   C.3       1 1      0.0000
    20 H20     -1.3319  -2.8817  -1.9952   H         1 1      0.0000
    21 H21     -0.5375  -1.3221  -2.1989   H         1 1      0.0000
    22 H22     -0.4760  -2.1455  -0.6423   H         1 1      0.0000
    23 OL2     -1.4873  -0.8649   1.6578   O.3       1 1      0.0000
    24 H24     -2.4169  -0.7091   1.9572   H         1 1      0.0000
    25 N25     -3.0373  -2.0329  -0.0809   N.3       1 1      0.0000
    26 H26     -3.9720  -2.2426  -0.4311   H         1 1      0.0000
    27 C27     -2.4116  -3.3105   0.2645   C.3       1 1      0.0000
    28 H28     -1.4316  -3.1521   0.7099   H         1 1      0.0000
    29 H29     -3.0233  -3.8592   0.9777   H         1 1      0.0000
    30 H30     -2.2854  -3.9300  -0.6209   H         1 1      0.0000
    31 OL1     -3.1816  -1.0702  -2.2463   O.3       1 1      0.0000
    32 H32     -3.3908  -1.9586  -2.6274   H         1 1      0.0000
    33 CL4     -1.1140   1.5266   1.4552   C.2       1 1      0.0000
    34 C34     -1.0362   3.8770   1.1447   C.3       1 1      0.0000
    35 H35     -1.9532   4.0507   1.7211   H         1 1      0.0000
    36 H36     -0.1851   4.0058   1.8248   H         1 1      0.0000
    37 OL3     -1.1805   1.6560   2.6465   O.2       1 1      0.0000
    38 OL4     -1.0377   2.5291   0.5883   O.3       1 1      0.0000
    39 C39     -0.9460   4.8392   0.0238   C.3       1 1      0.0000
    40 H40     -1.7922   4.7260  -0.6507   H         1 1      0.0000
    41 H41     -0.9417   5.8625   0.3934   H         1 1      0.0000
    42 H42     -0.0337   4.6814  -0.5475   H         1 1      0.0000
@<TRIPOS>BOND
     1     1     2   ar
     2     1     6   ar
     3     1    11    1
     4     2     3   ar
     5     2     7    1
     6     3     4   ar
     7     3     8    1
     8     4     5   ar
     9     4    14    1
    10     5     6   ar
    11     5     9    1
    12     6    10    1
    13    11    12    2
    14    11    13    2
    15    14    15    1
    16    14    23    1
    17    14    33    1
    18    15    16    1
    19    15    17    1
    20    15    18    1
    21    18    19    1
    22    18    25    1
    23    18    31    1
    24    19    20    1
    25    19    21    1
    26    19    22    1
    27    23    24    1
    28    25    26    1
    29    25    27    1
    30    27    28    1
    31    27    29    1
    32    27    30    1
    33    31    32    1
    34    33    37    2
    35    33    38    1
    36    34    35    1
    37    34    36    1
    38    34    38    1
    39    34    39    1
    40    39    40    1
    41    39    41    1
    42    39    42    1
@<TRIPOS>SUBSTRUCTURE
     1 1           1 GROUP             0 ****  ****    0  
@<TRIPOS>MOLECULE
Molecule Name_00229
    42    42     1     0     0
SMALL
NO_CHARGES
****
Generated from the CSD

@<TRIPOS>ATOM
     1 C1       2.8061  -0.6611  -0.2216   C.ar      1 1      0.0000
     2 C2       2.2299  -0.9249   1.0011   C.ar      1 1      0.0000
     3 C3       0.9224  -0.5281   1.2155   C.ar      1 1      0.0000
     4 C4       0.1921   0.1262   0.2296   C.ar      1 1      0.0000
     5 C5       0.8119   0.3691  -0.9911   C.ar      1 1      0.0000
     6 C6       2.1183  -0.0190  -1.2272   C.ar      1 1      0.0000
     7 H7       2.7895  -1.4331   1.7794   H         1 1      0.0000
     8 H8       0.4613  -0.7350   2.1750   H         1 1      0.0000
     9 H9       0.2626   0.8733  -1.7791   H         1 1      0.0000
    10 H10      2.5908   0.1780  -2.1838   H         1 1      0.0000
    11 N11      4.1936  -1.0766  -0.4600   N.pl3     1 1      0.0000
    12 O12      4.6903  -0.8355  -1.5493   O.2       1 1      0.0000
    13 O13      4.7900  -1.6450   0.4414   O.2       1 1      0.0000
    14 CL3     -1.2497   0.5716   0.4778   C.3       1 1      0.0000
    15 CL1     -2.2275  -0.1724  -0.4755   C.3       1 1      0.0000
    16 H16     -3.2463   0.1837  -0.2808   H         1 1      0.0000
    17 H17     -1.9843   0.1095  -1.5074   H         1 1      0.0000
    18 CL      -2.2237  -1.7087  -0.3860   C.3       1 1      0.0000
    19 CL2     -3.6302  -2.2211  -0.6365   C.3       1 1      0.0000
    20 H20     -3.6630  -3.3065  -0.5687   H         1 1      0.0000
    21 H21     -4.3249  -1.8146   0.0955   H         1 1      0.0000
    22 H22     -3.9749  -1.9329  -1.6274   H         1 1      0.0000
    23 OL2     -1.5608   0.3001   1.8387   O.3       1 1      0.0000
    24 H24     -2.4774   0.6150   2.0354   H         1 1      0.0000
    25 N25     -1.3482  -2.2674  -1.3826   N.3       1 1      0.0000
    26 H26     -0.4158  -1.8940  -1.2048   H         1 1      0.0000
    27 C27     -1.2268  -3.7258  -1.4198   C.3       1 1      0.0000
    28 H28     -2.1933  -4.1886  -1.6078   H         1 1      0.0000
    29 H29     -0.5435  -4.0359  -2.2077   H         1 1      0.0000
    30 H30     -0.8475  -4.1055  -0.4734   H         1 1      0.0000
    31 OL1     -1.8579  -2.1045   0.9305   O.3       1 1      0.0000
    32 H32     -1.8968  -3.0903   1.0001   H         1 1      0.0000
    33 CL4     -1.2518   2.0934   0.2298   C.2       1 1      0.0000
    34 C34     -1.3735   4.2292   1.2543   C.3       1 1      0.0000
    35 H35     -1.9166   4.5371   0.3522   H         1 1      0.0000
    36 H36     -1.8852   4.6702   2.1187   H         1 1      0.0000
    37 OL3     -1.1654   2.5879  -0.8603   O.2       1 1      0.0000
    38 OL4     -1.3603   2.7752   1.3636   O.3       1 1      0.0000
    39 C39      0.0282   4.7006   1.1939   C.3       1 1      0.0000
    40 H40      0.5409   4.2766   0.3330   H         1 1      0.0000
    41 H41      0.0672   5.7848   1.1115   H         1 1      0.0000
    42 H42      0.5721   4.4089   2.0899   H         1 1      0.0000
@<TRIPOS>BOND
     1     1     2   ar
     2     1     6   ar
     3     1    11    1
     4     2     3   ar
     5     2     7    1
     6     3     4   ar
     7     3     8    1
     8     4     5   ar
     9     4    14    1
    10     5     6   ar
    11     5     9    1
    12     6    10    1
    13    11    12    2
    14    11    13    2
    15    14    15    1
    16    14    23    1
    17    14    33    1
    18    15    16    1
    19    15    17    1
    20    15    18    1
    21    18    19    1
    22    18    25    1
    23    18    31    1
    24    19    20    1
    25    19    21    1
    26    19    22    1
    27    23    24    1
    28    25    26    1
    29    25    27    1
    30    27    28    1
    31    27    29    1
    32    27    30    1
    33    31    32    1
    34    33    37    2
    35    33    38    1
    36    34    35    1
    37    34    36    1
    38    34    38    1
    39    34    39    1
    40    39    40    1
    41    39    41    1
    42    39    42    1
@<TRIPOS>SUBSTRUCTURE
     1 1           1 GROUP             0 ****  ****    0  
@<TRIPOS>MOLECULE
Molecule Name_00230
    42    42     1     0     0
SMALL
NO_CHARGES
****
Generated from the CSD

@<TRIPOS>ATOM
     1 C1       2.8395  -0.6610  -0.1978   C.ar      1 1      0.0000
     2 C2       2.3120  -0.8553   1.0594   C.ar      1 1      0.0000
     3 C3       0.9986  -0.4879   1.2895   C.ar      1 1      0.0000
     4 C4       0.2147   0.0691   0.2853   C.ar      1 1      0.0000
     5 C5       0.7865   0.2441  -0.9700   C.ar      1 1      0.0000
     6 C6       2.0977  -0.1162  -1.2223   C.ar      1 1      0.0000
     7 H7       2.9137  -1.2872   1.8522   H         1 1      0.0000
     8 H8       0.5757  -0.6404   2.2765   H         1 1      0.0000
     9 H9       0.1949   0.6717  -1.7726   H         1 1      0.0000
    10 H10      2.5325   0.0272  -2.2060   H         1 1      0.0000
    11 N11      4.2327  -1.0461  -0.4534   N.pl3     1 1      0.0000
    12 O12      4.6858  -0.8676  -1.5732   O.2       1 1      0.0000
    13 O13      4.8772  -1.5280   0.4651   O.2       1 1      0.0000
    14 CL3     -1.2336   0.4829   0.5502   C.3       1 1      0.0000
    15 CL1     -2.2136  -0.3570  -0.3172   C.3       1 1      0.0000
    16 H16     -3.2384  -0.0269  -0.1083   H         1 1      0.0000
    17 H17     -2.0172  -0.1339  -1.3732   H         1 1      0.0000
    18 CL      -2.1465  -1.8830  -0.1306   C.3       1 1      0.0000
    19 CL2     -3.5330  -2.4664  -0.3323   C.3       1 1      0.0000
    20 H20     -3.4852  -3.5488  -0.4319   H         1 1      0.0000
    21 H21     -4.1769  -2.2319   0.5127   H         1 1      0.0000
    22 H22     -3.9939  -2.0634  -1.2317   H         1 1      0.0000
    23 OL2     -1.4929   0.2960   1.9360   O.3       1 1      0.0000
    24 H24     -2.4135   0.5935   2.1412   H         1 1      0.0000
    25 N25     -1.2576  -2.4686  -1.0995   N.3       1 1      0.0000
    26 H26     -1.2277  -3.4706  -0.9108   H         1 1      0.0000
    27 C27     -1.6119  -2.3079  -2.5107   C.3       1 1      0.0000
    28 H28     -1.4272  -1.2878  -2.8410   H         1 1      0.0000
    29 H29     -1.0241  -2.9779  -3.1347   H         1 1      0.0000
    30 H30     -2.6645  -2.5310  -2.6719   H         1 1      0.0000
    31 OL1     -1.7535  -2.1791   1.2042   O.3       1 1      0.0000
    32 H32     -1.7350  -3.1596   1.3316   H         1 1      0.0000
    33 CL4     -1.2968   1.9830   0.1995   C.2       1 1      0.0000
    34 C34     -1.4622   4.1794   1.0797   C.3       1 1      0.0000
    35 H35     -2.0430   4.4061   0.1772   H         1 1      0.0000
    36 H36     -1.9624   4.6619   1.9285   H         1 1      0.0000
    37 OL3     -1.2612   2.4036  -0.9240   O.2       1 1      0.0000
    38 OL4     -1.3945   2.7376   1.2872   O.3       1 1      0.0000
    39 C39     -0.0805   4.6914   0.9413   C.3       1 1      0.0000
    40 H40      0.4203   4.2261   0.0949   H         1 1      0.0000
    41 H41     -0.0821   5.7680   0.7842   H         1 1      0.0000
    42 H42      0.5005   4.4805   1.8367   H         1 1      0.0000
@<TRIPOS>BOND
     1     1     2   ar
     2     1     6   ar
     3     1    11    1
     4     2     3   ar
     5     2     7    1
     6     3     4   ar
     7     3     8    1
     8     4     5   ar
     9     4    14    1
    10     5     6   ar
    11     5     9    1
    12     6    10    1
    13    11    12    2
    14    11    13    2
    15    14    15    1
    16    14    23    1
    17    14    33    1
    18    15    16    1
    19    15    17    1
    20    15    18    1
    21    18    19    1
    22    18    25    1
    23    18    31    1
    24    19    20    1
    25    19    21    1
    26    19    22    1
    27    23    24    1
    28    25    26    1
    29    25    27    1
    30    27    28    1
    31    27    29    1
    32    27    30    1
    33    31    32    1
    34    33    37    2
    35    33    38    1
    36    34    35    1
    37    34    36    1
    38    34    38    1
    39    34    39    1
    40    39    40    1
    41    39    41    1
    42    39    42    1
@<TRIPOS>SUBSTRUCTURE
     1 1           1 GROUP             0 ****  ****    0  
@<TRIPOS>MOLECULE
Molecule Name_00231
    42    42     1     0     0
SMALL
NO_CHARGES
****
Generated from the CSD

@<TRIPOS>ATOM
     1 C1       2.8940  -0.8164  -0.1832   C.ar      1 1      0.0000
     2 C2       2.2860  -1.0662   1.0270   C.ar      1 1      0.0000
     3 C3       1.0003  -0.5985   1.2302   C.ar      1 1      0.0000
     4 C4       0.3230   0.1122   0.2457   C.ar      1 1      0.0000
     5 C5       0.9732   0.3386  -0.9624   C.ar      1 1      0.0000
     6 C6       2.2586  -0.1200  -1.1871   C.ar      1 1      0.0000
     7 H7       2.8043  -1.6180   1.8042   H         1 1      0.0000
     8 H8       0.5143  -0.7939   2.1798   H         1 1      0.0000
     9 H9       0.4650   0.8860  -1.7492   H         1 1      0.0000
    10 H10      2.7554   0.0649  -2.1338   H         1 1      0.0000
    11 N11      4.2588  -1.3069  -0.4098   N.pl3     1 1      0.0000
    12 O12      4.7842  -1.0774  -1.4880   O.2       1 1      0.0000
    13 O13      4.8086  -1.9229   0.4900   O.2       1 1      0.0000
    14 CL3     -1.0945   0.6356   0.4817   C.3       1 1      0.0000
    15 CL1     -2.0993  -0.0358  -0.4971   C.3       1 1      0.0000
    16 H16     -3.0989   0.3750  -0.3103   H         1 1      0.0000
    17 H17     -1.8255   0.2481  -1.5207   H         1 1      0.0000
    18 CL      -2.1846  -1.5710  -0.4333   C.3       1 1      0.0000
    19 CL2     -3.6142  -1.9979  -0.7114   C.3       1 1      0.0000
    20 H20     -3.7099  -3.0806  -0.6622   H         1 1      0.0000
    21 H21     -4.2951  -1.5640   0.0178   H         1 1      0.0000
    22 H22     -3.9275  -1.6746  -1.7019   H         1 1      0.0000
    23 OL2     -1.4403   0.3607   1.8335   O.3       1 1      0.0000
    24 H24     -2.3402   0.7245   2.0231   H         1 1      0.0000
    25 N25     -1.3281  -2.1630  -1.4272   N.3       1 1      0.0000
    26 H26     -0.3785  -1.8467  -1.2305   H         1 1      0.0000
    27 C27     -1.2896  -3.6252  -1.4872   C.3       1 1      0.0000
    28 H28     -2.2782  -4.0288  -1.6960   H         1 1      0.0000
    29 H29     -0.6139  -3.9614  -2.2708   H         1 1      0.0000
    30 H30     -0.9464  -4.0411  -0.5422   H         1 1      0.0000
    31 OL1     -1.8611  -2.0081   0.8813   O.3       1 1      0.0000
    32 H32     -1.9573  -2.9910   0.9338   H         1 1      0.0000
    33 CL4     -1.0061   2.1587   0.2592   C.2       1 1      0.0000
    34 C34     -1.0204   4.2815   1.3176   C.3       1 1      0.0000
    35 H35     -0.6665   4.7003   2.2677   H         1 1      0.0000
    36 H36     -0.3117   4.5815   0.5359   H         1 1      0.0000
    37 OL3     -0.8758   2.6648  -0.8212   O.2       1 1      0.0000
    38 OL4     -1.0918   2.8275   1.4027   O.3       1 1      0.0000
    39 C39     -2.3737   4.7928   1.0052   C.3       1 1      0.0000
    40 H40     -3.0818   4.5090   1.7810   H         1 1      0.0000
    41 H41     -2.3684   5.8783   0.9319   H         1 1      0.0000
    42 H42     -2.7289   4.3909   0.0586   H         1 1      0.0000
@<TRIPOS>BOND
     1     1     2   ar
     2     1     6   ar
     3     1    11    1
     4     2     3   ar
     5     2     7    1
     6     3     4   ar
     7     3     8    1
     8     4     5   ar
     9     4    14    1
    10     5     6   ar
    11     5     9    1
    12     6    10    1
    13    11    12    2
    14    11    13    2
    15    14    15    1
    16    14    23    1
    17    14    33    1
    18    15    16    1
    19    15    17    1
    20    15    18    1
    21    18    19    1
    22    18    25    1
    23    18    31    1
    24    19    20    1
    25    19    21    1
    26    19    22    1
    27    23    24    1
    28    25    26    1
    29    25    27    1
    30    27    28    1
    31    27    29    1
    32    27    30    1
    33    31    32    1
    34    33    37    2
    35    33    38    1
    36    34    35    1
    37    34    36    1
    38    34    38    1
    39    34    39    1
    40    39    40    1
    41    39    41    1
    42    39    42    1
@<TRIPOS>SUBSTRUCTURE
     1 1           1 GROUP             0 ****  ****    0  
@<TRIPOS>MOLECULE
Molecule Name_00232
    42    42     1     0     0
SMALL
NO_CHARGES
****
Generated from the CSD

@<TRIPOS>ATOM
     1 C1       2.9262  -0.8187  -0.1592   C.ar      1 1      0.0000
     2 C2       2.3694  -0.9974   1.0877   C.ar      1 1      0.0000
     3 C3       1.0765  -0.5562   1.3040   C.ar      1 1      0.0000
     4 C4       0.3418   0.0586   0.2963   C.ar      1 1      0.0000
     5 C5       0.9417   0.2154  -0.9483   C.ar      1 1      0.0000
     6 C6       2.2332  -0.2183  -1.1867   C.ar      1 1      0.0000
     7 H7       2.9328  -1.4740   1.8831   H         1 1      0.0000
     8 H8       0.6307  -0.6960   2.2827   H         1 1      0.0000
     9 H9       0.3883   0.6872  -1.7533   H         1 1      0.0000
    10 H10      2.6904  -0.0884  -2.1621   H         1 1      0.0000
    11 N11      4.2982  -1.2819  -0.4000   N.pl3     1 1      0.0000
    12 O12      4.7777  -1.1163  -1.5107   O.2       1 1      0.0000
    13 O13      4.8994  -1.8124   0.5211   O.2       1 1      0.0000
    14 CL3     -1.0835   0.5536   0.5461   C.3       1 1      0.0000
    15 CL1     -2.0979  -0.2162  -0.3464   C.3       1 1      0.0000
    16 H16     -3.1046   0.1710  -0.1477   H         1 1      0.0000
    17 H17     -1.8729   0.0083  -1.3964   H         1 1      0.0000
    18 CL      -2.1233  -1.7457  -0.1794   C.3       1 1      0.0000
    19 CL2     -3.5385  -2.2439  -0.4087   C.3       1 1      0.0000
    20 H20     -3.5528  -3.3259  -0.5221   H         1 1      0.0000
    21 H21     -4.1801  -1.9825   0.4302   H         1 1      0.0000
    22 H22     -3.9614  -1.8031  -1.3091   H         1 1      0.0000
    23 OL2     -1.3740   0.3649   1.9254   O.3       1 1      0.0000
    24 H24     -2.2786   0.7134   2.1214   H         1 1      0.0000
    25 N25     -1.2558  -2.3704  -1.1433   N.3       1 1      0.0000
    26 H26     -1.2877  -3.3747  -0.9678   H         1 1      0.0000
    27 C27     -1.5789  -2.1714  -2.5572   C.3       1 1      0.0000
    28 H28     -1.3298  -1.1599  -2.8710   H         1 1      0.0000
    29 H29     -1.0221  -2.8669  -3.1817   H         1 1      0.0000
    30 H30     -2.6403  -2.3300  -2.7363   H         1 1      0.0000
    31 OL1     -1.7684  -2.0812   1.1568   O.3       1 1      0.0000
    32 H32     -1.8095  -3.0627   1.2712   H         1 1      0.0000
    33 CL4     -1.0532   2.0591   0.2147   C.2       1 1      0.0000
    34 C34     -1.1026   4.2501   1.1220   C.3       1 1      0.0000
    35 H35     -0.7312   4.7461   2.0273   H         1 1      0.0000
    36 H36     -0.4308   4.5156   0.2964   H         1 1      0.0000
    37 OL3     -0.9762   2.4910  -0.9024   O.2       1 1      0.0000
    38 OL4     -1.1228   2.8044   1.3110   O.3       1 1      0.0000
    39 C39     -2.4819   4.6961   0.8233   C.3       1 1      0.0000
    40 H40     -3.1538   4.4464   1.6418   H         1 1      0.0000
    41 H41     -2.5151   5.7733   0.6741   H         1 1      0.0000
    42 H42     -2.8550   4.2173  -0.0796   H         1 1      0.0000
@<TRIPOS>BOND
     1     1     2   ar
     2     1     6   ar
     3     1    11    1
     4     2     3   ar
     5     2     7    1
     6     3     4   ar
     7     3     8    1
     8     4     5   ar
     9     4    14    1
    10     5     6   ar
    11     5     9    1
    12     6    10    1
    13    11    12    2
    14    11    13    2
    15    14    15    1
    16    14    23    1
    17    14    33    1
    18    15    16    1
    19    15    17    1
    20    15    18    1
    21    18    19    1
    22    18    25    1
    23    18    31    1
    24    19    20    1
    25    19    21    1
    26    19    22    1
    27    23    24    1
    28    25    26    1
    29    25    27    1
    30    27    28    1
    31    27    29    1
    32    27    30    1
    33    31    32    1
    34    33    37    2
    35    33    38    1
    36    34    35    1
    37    34    36    1
    38    34    38    1
    39    34    39    1
    40    39    40    1
    41    39    41    1
    42    39    42    1
@<TRIPOS>SUBSTRUCTURE
     1 1           1 GROUP             0 ****  ****    0  
@<TRIPOS>MOLECULE
Molecule Name_00233
    42    42     1     0     0
SMALL
NO_CHARGES
****
Generated from the CSD

@<TRIPOS>ATOM
     1 C1       3.4875  -0.4890  -0.1169   C.ar      1 1      0.0000
     2 C2       3.0373  -0.4607   1.1843   C.ar      1 1      0.0000
     3 C3       1.6762  -0.3667   1.4112   C.ar      1 1      0.0000
     4 C4       0.7686  -0.2988   0.3601   C.ar      1 1      0.0000
     5 C5       1.2665  -0.3341  -0.9376   C.ar      1 1      0.0000
     6 C6       2.6235  -0.4279  -1.1877   C.ar      1 1      0.0000
     7 H7       3.7352  -0.5111   2.0134   H         1 1      0.0000
     8 H8       1.3143  -0.3466   2.4334   H         1 1      0.0000
     9 H9       0.5793  -0.2880  -1.7758   H         1 1      0.0000
    10 H10      2.9993  -0.4529  -2.2052   H         1 1      0.0000
    11 N11      4.9300  -0.5874  -0.3699   N.pl3     1 1      0.0000
    12 O12      5.3134  -0.6115  -1.5291   O.2       1 1      0.0000
    13 O13      5.6831  -0.6409   0.5899   O.2       1 1      0.0000
    14 CL3     -0.7344  -0.1840   0.6190   C.3       1 1      0.0000
    15 CL1     -1.4829  -1.4362   0.0806   C.3       1 1      0.0000
    16 H16     -1.1206  -1.6535  -0.9315   H         1 1      0.0000
    17 H17     -1.2117  -2.2955   0.7063   H         1 1      0.0000
    18 CL      -3.0183  -1.3417   0.0377   C.3       1 1      0.0000
    19 CL2     -3.4934  -0.4948   1.2041   C.3       1 1      0.0000
    20 H20     -4.5781  -0.5224   1.2841   H         1 1      0.0000
    21 H21     -3.0751  -0.8584   2.1404   H         1 1      0.0000
    22 H22     -3.1892   0.5421   1.0770   H         1 1      0.0000
    23 OL2     -0.9246  -0.0414   2.0211   O.3       1 1      0.0000
    24 H24     -1.5870   0.6729   2.1920   H         1 1      0.0000
    25 N25     -3.4489  -0.7186  -1.1863   N.3       1 1      0.0000
    26 H26     -3.0420   0.2166  -1.2051   H         1 1      0.0000
    27 C27     -3.0697  -1.3769  -2.4377   C.3       1 1      0.0000
    28 H28     -3.2278  -2.4513  -2.3716   H         1 1      0.0000
    29 H29     -3.6619  -0.9976  -3.2678   H         1 1      0.0000
    30 H30     -2.0197  -1.2020  -2.6627   H         1 1      0.0000
    31 OL1     -3.5765  -2.6398   0.2028   O.3       1 1      0.0000
    32 H32     -4.5635  -2.5758   0.2009   H         1 1      0.0000
    33 CL4     -1.1730   1.1038  -0.1064   C.2       1 1      0.0000
    34 C34     -1.5201   3.4394   0.1192   C.3       1 1      0.0000
    35 H35     -0.8763   3.6852  -0.7343   H         1 1      0.0000
    36 H36     -2.5534   3.3888  -0.2458   H         1 1      0.0000
    37 OL3     -1.5135   1.1340  -1.2569   O.2       1 1      0.0000
    38 OL4     -1.1258   2.1598   0.6966   O.3       1 1      0.0000
    39 C39     -1.3979   4.4766   1.1680   C.3       1 1      0.0000
    40 H40     -0.3735   4.5414   1.5287   H         1 1      0.0000
    41 H41     -1.6833   5.4524   0.7805   H         1 1      0.0000
    42 H42     -2.0415   4.2466   2.0146   H         1 1      0.0000
@<TRIPOS>BOND
     1     1     2   ar
     2     1     6   ar
     3     1    11    1
     4     2     3   ar
     5     2     7    1
     6     3     4   ar
     7     3     8    1
     8     4     5   ar
     9     4    14    1
    10     5     6   ar
    11     5     9    1
    12     6    10    1
    13    11    12    2
    14    11    13    2
    15    14    15    1
    16    14    23    1
    17    14    33    1
    18    15    16    1
    19    15    17    1
    20    15    18    1
    21    18    19    1
    22    18    25    1
    23    18    31    1
    24    19    20    1
    25    19    21    1
    26    19    22    1
    27    23    24    1
    28    25    26    1
    29    25    27    1
    30    27    28    1
    31    27    29    1
    32    27    30    1
    33    31    32    1
    34    33    37    2
    35    33    38    1
    36    34    35    1
    37    34    36    1
    38    34    38    1
    39    34    39    1
    40    39    40    1
    41    39    41    1
    42    39    42    1
@<TRIPOS>SUBSTRUCTURE
     1 1           1 GROUP             0 ****  ****    0  
@<TRIPOS>MOLECULE
Molecule Name_00234
    42    42     1     0     0
SMALL
NO_CHARGES
****
Generated from the CSD

@<TRIPOS>ATOM
     1 C1       3.5463  -0.2566  -0.2065   C.ar      1 1      0.0000
     2 C2       3.0314   0.1068   1.0181   C.ar      1 1      0.0000
     3 C3       1.6636   0.0321   1.2089   C.ar      1 1      0.0000
     4 C4       0.8123  -0.3959   0.1962   C.ar      1 1      0.0000
     5 C5       1.3752  -0.7565  -1.0230   C.ar      1 1      0.0000
     6 C6       2.7402  -0.6897  -1.2356   C.ar      1 1      0.0000
     7 H7       3.6847   0.4443   1.8159   H         1 1      0.0000
     8 H8       1.2513   0.3142   2.1715   H         1 1      0.0000
     9 H9       0.7337  -1.0990  -1.8280   H         1 1      0.0000
    10 H10      3.1666  -0.9724  -2.1924   H         1 1      0.0000
    11 N11      4.9964  -0.1802  -0.4208   N.pl3     1 1      0.0000
    12 O12      5.4375  -0.5058  -1.5120   O.2       1 1      0.0000
    13 O13      5.6977   0.2056   0.5014   O.2       1 1      0.0000
    14 CL3     -0.7003  -0.4656   0.4112   C.3       1 1      0.0000
    15 CL1     -1.4350  -0.7407  -0.9315   C.3       1 1      0.0000
    16 H16     -1.1899   0.0626  -1.6367   H         1 1      0.0000
    17 H17     -1.0374  -1.6700  -1.3579   H         1 1      0.0000
    18 CL      -2.9666  -0.8680  -0.8524   C.3       1 1      0.0000
    19 CL2     -3.5158  -1.0953  -2.2488   C.3       1 1      0.0000
    20 H20     -4.6024  -1.1492  -2.2319   H         1 1      0.0000
    21 H21     -3.2270  -0.2839  -2.9136   H         1 1      0.0000
    22 H22     -3.1368  -2.0261  -2.6656   H         1 1      0.0000
    23 OL2     -0.9586  -1.4989   1.3535   O.3       1 1      0.0000
    24 H24     -1.4983  -1.1366   2.0989   H         1 1      0.0000
    25 N25     -3.3352  -1.9883  -0.0271   N.3       1 1      0.0000
    26 H26     -2.9356  -1.8235   0.8968   H         1 1      0.0000
    27 C27     -4.7659  -2.2340   0.1615   C.3       1 1      0.0000
    28 H28     -5.2508  -2.4396  -0.7905   H         1 1      0.0000
    29 H29     -4.9276  -3.0882   0.8157   H         1 1      0.0000
    30 H30     -5.2502  -1.3683   0.6085   H         1 1      0.0000
    31 OL1     -3.5183   0.3531  -0.3747   O.3       1 1      0.0000
    32 H32     -4.5051   0.2879  -0.3688   H         1 1      0.0000
    33 CL4     -1.0878   0.9019   1.0086   C.2       1 1      0.0000
    34 C34     -0.6340   3.2301   0.9894   C.3       1 1      0.0000
    35 H35     -0.8794   3.2006   2.0582   H         1 1      0.0000
    36 H36      0.2497   3.8685   0.8673   H         1 1      0.0000
    37 OL3     -1.9472   1.0457   1.8339   O.2       1 1      0.0000
    38 OL4     -0.3567   1.8854   0.4982   O.3       1 1      0.0000
    39 C39     -1.7720   3.7781   0.2178   C.3       1 1      0.0000
    40 H40     -2.6566   3.1569   0.3415   H         1 1      0.0000
    41 H41     -2.0152   4.7846   0.5516   H         1 1      0.0000
    42 H42     -1.5336   3.8211  -0.8429   H         1 1      0.0000
@<TRIPOS>BOND
     1     1     2   ar
     2     1     6   ar
     3     1    11    1
     4     2     3   ar
     5     2     7    1
     6     3     4   ar
     7     3     8    1
     8     4     5   ar
     9     4    14    1
    10     5     6   ar
    11     5     9    1
    12     6    10    1
    13    11    12    2
    14    11    13    2
    15    14    15    1
    16    14    23    1
    17    14    33    1
    18    15    16    1
    19    15    17    1
    20    15    18    1
    21    18    19    1
    22    18    25    1
    23    18    31    1
    24    19    20    1
    25    19    21    1
    26    19    22    1
    27    23    24    1
    28    25    26    1
    29    25    27    1
    30    27    28    1
    31    27    29    1
    32    27    30    1
    33    31    32    1
    34    33    37    2
    35    33    38    1
    36    34    35    1
    37    34    36    1
    38    34    38    1
    39    34    39    1
    40    39    40    1
    41    39    41    1
    42    39    42    1
@<TRIPOS>SUBSTRUCTURE
     1 1           1 GROUP             0 ****  ****    0  
@<TRIPOS>MOLECULE
Molecule Name_00235
    42    42     1     0     0
SMALL
NO_CHARGES
****
Generated from the CSD

@<TRIPOS>ATOM
     1 C1       3.4478  -0.3445  -0.2048   C.ar      1 1      0.0000
     2 C2       2.9601   0.0656   1.0160   C.ar      1 1      0.0000
     3 C3       1.5924   0.0492   1.2211   C.ar      1 1      0.0000
     4 C4       0.7147  -0.3668   0.2262   C.ar      1 1      0.0000
     5 C5       1.2506  -0.7759  -0.9899   C.ar      1 1      0.0000
     6 C6       2.6149  -0.7678  -1.2166   C.ar      1 1      0.0000
     7 H7       3.6342   0.3944   1.8001   H         1 1      0.0000
     8 H8       1.2013   0.3683   2.1811   H         1 1      0.0000
     9 H9       0.5880  -1.1103  -1.7811   H         1 1      0.0000
    10 H10      3.0202  -1.0880  -2.1708   H         1 1      0.0000
    11 N11      4.8976  -0.3302  -0.4343   N.pl3     1 1      0.0000
    12 O12      5.3145  -0.6968  -1.5220   O.2       1 1      0.0000
    13 O13      5.6228   0.0476   0.4727   O.2       1 1      0.0000
    14 CL3     -0.7972  -0.3719   0.4566   C.3       1 1      0.0000
    15 CL1     -1.5557  -0.6471  -0.8727   C.3       1 1      0.0000
    16 H16     -1.2864   0.1303  -1.5979   H         1 1      0.0000
    17 H17     -1.1993  -1.6004  -1.2820   H         1 1      0.0000
    18 CL      -3.0902  -0.7120  -0.7766   C.3       1 1      0.0000
    19 CL2     -3.6621  -0.9479  -2.1625   C.3       1 1      0.0000
    20 H20     -4.7481  -1.0040  -2.1272   H         1 1      0.0000
    21 H21     -3.3863  -0.1394  -2.8363   H         1 1      0.0000
    22 H22     -3.2880  -1.8800  -2.5806   H         1 1      0.0000
    23 OL2     -1.0864  -1.3734   1.4240   O.3       1 1      0.0000
    24 H24     -2.0558  -1.3710   1.6198   H         1 1      0.0000
    25 N25     -3.4942  -1.7986   0.0767   N.3       1 1      0.0000
    26 H26     -4.5134  -1.7860   0.1149   H         1 1      0.0000
    27 C27     -3.0965  -3.1476  -0.3297   C.3       1 1      0.0000
    28 H28     -2.0132  -3.2287  -0.3896   H         1 1      0.0000
    29 H29     -3.4527  -3.8865   0.3850   H         1 1      0.0000
    30 H30     -3.5093  -3.3937  -1.3058   H         1 1      0.0000
    31 OL1     -3.5887   0.5401  -0.3211   O.3       1 1      0.0000
    32 H32     -4.5764   0.5067  -0.2836   H         1 1      0.0000
    33 CL4     -1.1245   1.0226   1.0271   C.2       1 1      0.0000
    34 C34     -0.5798   3.3300   0.9519   C.3       1 1      0.0000
    35 H35     -0.8154   3.3336   2.0233   H         1 1      0.0000
    36 H36      0.3270   3.9301   0.8074   H         1 1      0.0000
    37 OL3     -1.9693   1.2182   1.8569   O.2       1 1      0.0000
    38 OL4     -0.3606   1.9650   0.4882   O.3       1 1      0.0000
    39 C39     -1.7031   3.9055   0.1789   C.3       1 1      0.0000
    40 H40     -2.6102   3.3226   0.3245   H         1 1      0.0000
    41 H41     -1.9032   4.9279   0.4925   H         1 1      0.0000
    42 H42     -1.4740   3.9159  -0.8847   H         1 1      0.0000
@<TRIPOS>BOND
     1     1     2   ar
     2     1     6   ar
     3     1    11    1
     4     2     3   ar
     5     2     7    1
     6     3     4   ar
     7     3     8    1
     8     4     5   ar
     9     4    14    1
    10     5     6   ar
    11     5     9    1
    12     6    10    1
    13    11    12    2
    14    11    13    2
    15    14    15    1
    16    14    23    1
    17    14    33    1
    18    15    16    1
    19    15    17    1
    20    15    18    1
    21    18    19    1
    22    18    25    1
    23    18    31    1
    24    19    20    1
    25    19    21    1
    26    19    22    1
    27    23    24    1
    28    25    26    1
    29    25    27    1
    30    27    28    1
    31    27    29    1
    32    27    30    1
    33    31    32    1
    34    33    37    2
    35    33    38    1
    36    34    35    1
    37    34    36    1
    38    34    38    1
    39    34    39    1
    40    39    40    1
    41    39    41    1
    42    39    42    1
@<TRIPOS>SUBSTRUCTURE
     1 1           1 GROUP             0 ****  ****    0  
@<TRIPOS>MOLECULE
Molecule Name_00236
    42    42     1     0     0
SMALL
NO_CHARGES
****
Generated from the CSD

@<TRIPOS>ATOM
     1 C1       3.5671  -0.2384  -0.2337   C.ar      1 1      0.0000
     2 C2       3.0451   0.0298   1.0122   C.ar      1 1      0.0000
     3 C3       1.6814  -0.1030   1.2005   C.ar      1 1      0.0000
     4 C4       0.8410  -0.4952   0.1645   C.ar      1 1      0.0000
     5 C5       1.4108  -0.7593  -1.0760   C.ar      1 1      0.0000
     6 C6       2.7719  -0.6331  -1.2866   C.ar      1 1      0.0000
     7 H7       3.6898   0.3384   1.8285   H         1 1      0.0000
     8 H8       1.2637   0.1039   2.1797   H         1 1      0.0000
     9 H9       0.7780  -1.0721  -1.8998   H         1 1      0.0000
    10 H10      3.2038  -0.8406  -2.2600   H         1 1      0.0000
    11 N11      5.0130  -0.0997  -0.4455   N.pl3     1 1      0.0000
    12 O12      5.4605  -0.3411  -1.5558   O.2       1 1      0.0000
    13 O13      5.7045   0.2509   0.4979   O.2       1 1      0.0000
    14 CL3     -0.6675  -0.6294   0.3774   C.3       1 1      0.0000
    15 CL1     -1.3985  -0.8387  -0.9791   C.3       1 1      0.0000
    16 H16     -1.1801   0.0158  -1.6310   H         1 1      0.0000
    17 H17     -0.9748  -1.7259  -1.4657   H         1 1      0.0000
    18 CL      -2.9253  -1.0169  -0.9059   C.3       1 1      0.0000
    19 CL2     -3.2385  -2.2661  -0.1028   C.3       1 1      0.0000
    20 H20     -4.1981  -2.6846  -0.3991   H         1 1      0.0000
    21 H21     -2.4751  -3.0257  -0.2578   H         1 1      0.0000
    22 H22     -3.2810  -2.0403   0.9606   H         1 1      0.0000
    23 OL2     -0.8875  -1.7313   1.2491   O.3       1 1      0.0000
    24 H24     -1.5834  -1.4934   1.9104   H         1 1      0.0000
    25 N25     -3.5317   0.1126  -0.2513   N.3       1 1      0.0000
    26 H26     -3.2877   0.9401  -0.7955   H         1 1      0.0000
    27 C27     -4.9895   0.1010  -0.1179   C.3       1 1      0.0000
    28 H28     -5.3173  -0.7626   0.4570   H         1 1      0.0000
    29 H29     -5.3374   0.9981   0.3899   H         1 1      0.0000
    30 H30     -5.4659   0.0583  -1.0951   H         1 1      0.0000
    31 OL1     -3.4412  -1.2166  -2.2165   O.3       1 1      0.0000
    32 H32     -4.4156  -1.3782  -2.1651   H         1 1      0.0000
    33 CL4     -1.0975   0.6816   1.0657   C.2       1 1      0.0000
    34 C34     -0.7375   3.0231   1.1841   C.3       1 1      0.0000
    35 H35     -0.9605   2.9177   2.2530   H         1 1      0.0000
    36 H36      0.1174   3.7036   1.0871   H         1 1      0.0000
    37 OL3     -1.9456   0.7388   1.9129   O.2       1 1      0.0000
    38 OL4     -0.4165   1.7239   0.6052   O.3       1 1      0.0000
    39 C39     -1.9114   3.5705   0.4679   C.3       1 1      0.0000
    40 H40     -2.7679   2.9071   0.5677   H         1 1      0.0000
    41 H41     -2.1880   4.5437   0.8681   H         1 1      0.0000
    42 H42     -1.6958   3.6887  -0.5920   H         1 1      0.0000
@<TRIPOS>BOND
     1     1     2   ar
     2     1     6   ar
     3     1    11    1
     4     2     3   ar
     5     2     7    1
     6     3     4   ar
     7     3     8    1
     8     4     5   ar
     9     4    14    1
    10     5     6   ar
    11     5     9    1
    12     6    10    1
    13    11    12    2
    14    11    13    2
    15    14    15    1
    16    14    23    1
    17    14    33    1
    18    15    16    1
    19    15    17    1
    20    15    18    1
    21    18    19    1
    22    18    25    1
    23    18    31    1
    24    19    20    1
    25    19    21    1
    26    19    22    1
    27    23    24    1
    28    25    26    1
    29    25    27    1
    30    27    28    1
    31    27    29    1
    32    27    30    1
    33    31    32    1
    34    33    37    2
    35    33    38    1
    36    34    35    1
    37    34    36    1
    38    34    38    1
    39    34    39    1
    40    39    40    1
    41    39    41    1
    42    39    42    1
@<TRIPOS>SUBSTRUCTURE
     1 1           1 GROUP             0 ****  ****    0  
@<TRIPOS>MOLECULE
Molecule Name_00237
    42    42     1     0     0
SMALL
NO_CHARGES
****
Generated from the CSD

@<TRIPOS>ATOM
     1 C1       2.8189  -0.4803  -0.2511   C.ar      1 1      0.0000
     2 C2       1.9726   0.0253  -1.2127   C.ar      1 1      0.0000
     3 C3       0.6563   0.2754  -0.8699   C.ar      1 1      0.0000
     4 C4       0.1806   0.0251   0.4125   C.ar      1 1      0.0000
     5 C5       1.0704  -0.4821   1.3529   C.ar      1 1      0.0000
     6 C6       2.3908  -0.7395   1.0319   C.ar      1 1      0.0000
     7 H7       2.3308   0.2234  -2.2176   H         1 1      0.0000
     8 H8      -0.0152   0.6763  -1.6213   H         1 1      0.0000
     9 H9       0.7261  -0.6813   2.3623   H         1 1      0.0000
    10 H10      3.0746  -1.1368   1.7748   H         1 1      0.0000
    11 N11      4.2179  -0.7508  -0.6039   N.pl3     1 1      0.0000
    12 O12      4.9557  -1.1990   0.2598   O.2       1 1      0.0000
    13 O13      4.5821  -0.5156  -1.7455   O.2       1 1      0.0000
    14 CL3     -1.2791   0.2939   0.7812   C.3       1 1      0.0000
    15 CL1     -2.2169  -0.0202  -0.4189   C.3       1 1      0.0000
    16 H16     -3.1723   0.4948  -0.2618   H         1 1      0.0000
    17 H17     -1.7712   0.4071  -1.3257   H         1 1      0.0000
    18 CL      -2.5041  -1.5087  -0.6831   C.3       1 1      0.0000
    19 CL2     -3.4429  -1.6272  -1.8697   C.3       1 1      0.0000
    20 H20     -3.6847  -2.6694  -2.0677   H         1 1      0.0000
    21 H21     -4.3722  -1.0936  -1.6812   H         1 1      0.0000
    22 H22     -2.9876  -1.2090  -2.7650   H         1 1      0.0000
    23 OL2     -1.6007  -0.5175   1.9040   O.3       1 1      0.0000
    24 H24     -2.5303  -0.3335   2.1869   H         1 1      0.0000
    25 N25     -1.2846  -2.2082  -0.9921   N.3       1 1      0.0000
    26 H26     -0.6836  -2.1385  -0.1709   H         1 1      0.0000
    27 C27     -1.3979  -3.6300  -1.3218   C.3       1 1      0.0000
    28 H28     -2.0300  -3.7741  -2.1955   H         1 1      0.0000
    29 H29     -0.4198  -4.0550  -1.5373   H         1 1      0.0000
    30 H30     -1.8333  -4.1846  -0.4932   H         1 1      0.0000
    31 OL1     -3.1719  -2.0681   0.4416   O.3       1 1      0.0000
    32 H32     -3.3804  -3.0179   0.2612   H         1 1      0.0000
    33 CL4     -1.3294   1.7837   1.1753   C.2       1 1      0.0000
    34 C34     -0.4078   3.9322   0.7744   C.3       1 1      0.0000
    35 H35     -1.3861   4.3891   0.5801   H         1 1      0.0000
    36 H36     -0.1655   4.0991   1.8312   H         1 1      0.0000
    37 OL3     -2.0752   2.2254   2.0054   O.2       1 1      0.0000
    38 OL4     -0.4522   2.5035   0.4864   O.3       1 1      0.0000
    39 C39      0.6246   4.5459  -0.0906   C.3       1 1      0.0000
    40 H40      0.3869   4.3946  -1.1415   H         1 1      0.0000
    41 H41      0.6931   5.6164   0.0908   H         1 1      0.0000
    42 H42      1.6008   4.1062   0.1028   H         1 1      0.0000
@<TRIPOS>BOND
     1     1     2   ar
     2     1     6   ar
     3     1    11    1
     4     2     3   ar
     5     2     7    1
     6     3     4   ar
     7     3     8    1
     8     4     5   ar
     9     4    14    1
    10     5     6   ar
    11     5     9    1
    12     6    10    1
    13    11    12    2
    14    11    13    2
    15    14    15    1
    16    14    23    1
    17    14    33    1
    18    15    16    1
    19    15    17    1
    20    15    18    1
    21    18    19    1
    22    18    25    1
    23    18    31    1
    24    19    20    1
    25    19    21    1
    26    19    22    1
    27    23    24    1
    28    25    26    1
    29    25    27    1
    30    27    28    1
    31    27    29    1
    32    27    30    1
    33    31    32    1
    34    33    37    2
    35    33    38    1
    36    34    35    1
    37    34    36    1
    38    34    38    1
    39    34    39    1
    40    39    40    1
    41    39    41    1
    42    39    42    1
@<TRIPOS>SUBSTRUCTURE
     1 1           1 GROUP             0 ****  ****    0  
@<TRIPOS>MOLECULE
Molecule Name_00238
    42    42     1     0     0
SMALL
NO_CHARGES
****
Generated from the CSD

@<TRIPOS>ATOM
     1 C1       3.4320  -0.1744  -0.1282   C.ar      1 1      0.0000
     2 C2       2.5738  -0.0033  -1.1916   C.ar      1 1      0.0000
     3 C3       1.2117  -0.0366  -0.9541   C.ar      1 1      0.0000
     4 C4       0.7030  -0.2398   0.3238   C.ar      1 1      0.0000
     5 C5       1.6054  -0.4044   1.3688   C.ar      1 1      0.0000
     6 C6       2.9714  -0.3746   1.1541   C.ar      1 1      0.0000
     7 H7       2.9580   0.1542  -2.1940   H         1 1      0.0000
     8 H8       0.5299   0.1001  -1.7864   H         1 1      0.0000
     9 H9       1.2347  -0.5592   2.3765   H         1 1      0.0000
    10 H10      3.6650  -0.5060   1.9781   H         1 1      0.0000
    11 N11      4.8798  -0.1422  -0.3684   N.pl3     1 1      0.0000
    12 O12      5.6276  -0.2954   0.5847   O.2       1 1      0.0000
    13 O13      5.2724   0.0365  -1.5109   O.2       1 1      0.0000
    14 CL3     -0.8046  -0.2862   0.5769   C.3       1 1      0.0000
    15 CL1     -1.5515  -0.8754  -0.6533   C.3       1 1      0.0000
    16 H16     -1.6317  -0.0965  -1.4212   H         1 1      0.0000
    17 H17     -0.9362  -1.6781  -1.0781   H         1 1      0.0000
    18 CL      -2.9573  -1.4412  -0.3856   C.3       1 1      0.0000
    19 CL2     -3.8100  -0.3617   0.2556   C.3       1 1      0.0000
    20 H20     -4.8677  -0.5595   0.0948   H         1 1      0.0000
    21 H21     -3.6328  -0.3166   1.3281   H         1 1      0.0000
    22 H22     -3.5795   0.6138  -0.1674   H         1 1      0.0000
    23 OL2     -1.0269  -1.0806   1.7354   O.3       1 1      0.0000
    24 H24     -1.8695  -0.7992   2.1702   H         1 1      0.0000
    25 N25     -3.5796  -1.8440  -1.6195   N.3       1 1      0.0000
    26 H26     -2.9632  -2.5300  -2.0553   H         1 1      0.0000
    27 C27     -4.9061  -2.4562  -1.5272   C.3       1 1      0.0000
    28 H28     -5.6757  -1.6947  -1.4195   H         1 1      0.0000
    29 H29     -5.1261  -3.0364  -2.4209   H         1 1      0.0000
    30 H30     -4.9650  -3.1214  -0.6683   H         1 1      0.0000
    31 OL1     -2.8657  -2.5148   0.5432   O.3       1 1      0.0000
    32 H32     -3.7438  -2.6491   0.9780   H         1 1      0.0000
    33 CL4     -1.2141   1.1744   0.8525   C.2       1 1      0.0000
    34 C34     -0.7922   3.4457   0.3142   C.3       1 1      0.0000
    35 H35     -1.8388   3.6483   0.0554   H         1 1      0.0000
    36 H36     -0.6451   3.7362   1.3617   H         1 1      0.0000
    37 OL3     -2.0799   1.4866   1.6228   O.2       1 1      0.0000
    38 OL4     -0.4938   2.0294   0.1368   O.3       1 1      0.0000
    39 C39      0.1117   4.2217  -0.5641   C.3       1 1      0.0000
    40 H40     -0.0348   3.9477  -1.6068   H         1 1      0.0000
    41 H41     -0.0760   5.2887  -0.4644   H         1 1      0.0000
    42 H42      1.1525   4.0352  -0.3076   H         1 1      0.0000
@<TRIPOS>BOND
     1     1     2   ar
     2     1     6   ar
     3     1    11    1
     4     2     3   ar
     5     2     7    1
     6     3     4   ar
     7     3     8    1
     8     4     5   ar
     9     4    14    1
    10     5     6   ar
    11     5     9    1
    12     6    10    1
    13    11    12    2
    14    11    13    2
    15    14    15    1
    16    14    23    1
    17    14    33    1
    18    15    16    1
    19    15    17    1
    20    15    18    1
    21    18    19    1
    22    18    25    1
    23    18    31    1
    24    19    20    1
    25    19    21    1
    26    19    22    1
    27    23    24    1
    28    25    26    1
    29    25    27    1
    30    27    28    1
    31    27    29    1
    32    27    30    1
    33    31    32    1
    34    33    37    2
    35    33    38    1
    36    34    35    1
    37    34    36    1
    38    34    38    1
    39    34    39    1
    40    39    40    1
    41    39    41    1
    42    39    42    1
@<TRIPOS>SUBSTRUCTURE
     1 1           1 GROUP             0 ****  ****    0  
@<TRIPOS>MOLECULE
Molecule Name_00239
    42    42     1     0     0
SMALL
NO_CHARGES
****
Generated from the CSD

@<TRIPOS>ATOM
     1 C1       2.9191  -0.3430  -0.3907   C.ar      1 1      0.0000
     2 C2       2.0625   0.2858  -1.2668   C.ar      1 1      0.0000
     3 C3       0.7396   0.4471  -0.8971   C.ar      1 1      0.0000
     4 C4       0.2676  -0.0118   0.3276   C.ar      1 1      0.0000
     5 C5       1.1678  -0.6376   1.1829   C.ar      1 1      0.0000
     6 C6       2.4949  -0.8095   0.8336   C.ar      1 1      0.0000
     7 H7       2.4178   0.6469  -2.2263   H         1 1      0.0000
     8 H8       0.0599   0.9438  -1.5809   H         1 1      0.0000
     9 H9       0.8264  -1.0003   2.1467   H         1 1      0.0000
    10 H10      3.1868  -1.3011   1.5095   H         1 1      0.0000
    11 N11      4.3252  -0.5208  -0.7729   N.pl3     1 1      0.0000
    12 O12      5.0721  -1.0802   0.0147   O.2       1 1      0.0000
    13 O13      4.6859  -0.1015  -1.8616   O.2       1 1      0.0000
    14 CL3     -1.1991   0.1605   0.7250   C.3       1 1      0.0000
    15 CL1     -2.1288  -0.0233  -0.5081   C.3       1 1      0.0000
    16 H16     -3.0926   0.4546  -0.2952   H         1 1      0.0000
    17 H17     -1.6875   0.5153  -1.3558   H         1 1      0.0000
    18 CL      -2.3919  -1.4742  -0.9482   C.3       1 1      0.0000
    19 CL2     -1.0759  -2.1142  -1.3509   C.3       1 1      0.0000
    20 H20     -1.2474  -3.0566  -1.8670   H         1 1      0.0000
    21 H21     -0.5166  -1.4601  -2.0165   H         1 1      0.0000
    22 H22     -0.4606  -2.3140  -0.4761   H         1 1      0.0000
    23 OL2     -1.4930  -0.8004   1.7313   O.3       1 1      0.0000
    24 H24     -2.4274  -0.6844   2.0337   H         1 1      0.0000
    25 N25     -2.9575  -2.2330   0.1363   N.3       1 1      0.0000
    26 H26     -3.8265  -1.7707   0.4036   H         1 1      0.0000
    27 C27     -3.2818  -3.6354  -0.1305   C.3       1 1      0.0000
    28 H28     -2.3914  -4.1885  -0.4221   H         1 1      0.0000
    29 H29     -3.7005  -4.1096   0.7548   H         1 1      0.0000
    30 H30     -4.0099  -3.7166  -0.9349   H         1 1      0.0000
    31 OL1     -3.2312  -1.4748  -2.0969   O.3       1 1      0.0000
    32 H32     -3.3615  -2.4045  -2.4082   H         1 1      0.0000
    33 CL4     -1.2956   1.5836   1.3104   C.2       1 1      0.0000
    34 C34     -0.4435   3.7943   1.1953   C.3       1 1      0.0000
    35 H35     -1.4361   4.2414   1.0608   H         1 1      0.0000
    36 H36     -0.2039   3.8291   2.2653   H         1 1      0.0000
    37 OL3     -2.0530   1.8892   2.1898   O.2       1 1      0.0000
    38 OL4     -0.4433   2.4147   0.7230   O.3       1 1      0.0000
    39 C39      0.5669   4.5481   0.4198   C.3       1 1      0.0000
    40 H40      0.3315   4.5281  -0.6423   H         1 1      0.0000
    41 H41      0.6019   5.5874   0.7396   H         1 1      0.0000
    42 H42      1.5570   4.1180   0.5556   H         1 1      0.0000
@<TRIPOS>BOND
     1     1     2   ar
     2     1     6   ar
     3     1    11    1
     4     2     3   ar
     5     2     7    1
     6     3     4   ar
     7     3     8    1
     8     4     5   ar
     9     4    14    1
    10     5     6   ar
    11     5     9    1
    12     6    10    1
    13    11    12    2
    14    11    13    2
    15    14    15    1
    16    14    23    1
    17    14    33    1
    18    15    16    1
    19    15    17    1
    20    15    18    1
    21    18    19    1
    22    18    25    1
    23    18    31    1
    24    19    20    1
    25    19    21    1
    26    19    22    1
    27    23    24    1
    28    25    26    1
    29    25    27    1
    30    27    28    1
    31    27    29    1
    32    27    30    1
    33    31    32    1
    34    33    37    2
    35    33    38    1
    36    34    35    1
    37    34    36    1
    38    34    38    1
    39    34    39    1
    40    39    40    1
    41    39    41    1
    42    39    42    1
@<TRIPOS>SUBSTRUCTURE
     1 1           1 GROUP             0 ****  ****    0  
@<TRIPOS>MOLECULE
Molecule Name_00240
    42    42     1     0     0
SMALL
NO_CHARGES
****
Generated from the CSD

@<TRIPOS>ATOM
     1 C1       2.9819  -0.3058  -0.3990   C.ar      1 1      0.0000
     2 C2       2.1120   0.3072  -1.2731   C.ar      1 1      0.0000
     3 C3       0.7792   0.4084  -0.9176   C.ar      1 1      0.0000
     4 C4       0.3106  -0.0947   0.2910   C.ar      1 1      0.0000
     5 C5       1.2242  -0.7026   1.1449   C.ar      1 1      0.0000
     6 C6       2.5614  -0.8146   0.8097   C.ar      1 1      0.0000
     7 H7       2.4645   0.7023  -2.2201   H         1 1      0.0000
     8 H8       0.0889   0.8924  -1.5999   H         1 1      0.0000
     9 H9       0.8856  -1.0988   2.0964   H         1 1      0.0000
    10 H10      3.2637  -1.2928   1.4844   H         1 1      0.0000
    11 N11      4.3985  -0.4200  -0.7661   N.pl3     1 1      0.0000
    12 O12      5.1572  -0.9662   0.0196   O.2       1 1      0.0000
    13 O13      4.7558   0.0362  -1.8411   O.2       1 1      0.0000
    14 CL3     -1.1666   0.0113   0.6723   C.3       1 1      0.0000
    15 CL1     -2.0729  -0.1828  -0.5764   C.3       1 1      0.0000
    16 H16     -3.0575   0.2522  -0.3665   H         1 1      0.0000
    17 H17     -1.6428   0.3907  -1.4069   H         1 1      0.0000
    18 CL      -2.2728  -1.6332  -1.0500   C.3       1 1      0.0000
    19 CL2     -0.9276  -2.2122  -1.4485   C.3       1 1      0.0000
    20 H20     -1.0551  -3.1494  -1.9863   H         1 1      0.0000
    21 H21     -0.3865  -1.5226  -2.0929   H         1 1      0.0000
    22 H22     -0.3157  -2.4061  -0.5700   H         1 1      0.0000
    23 OL2     -1.4346  -0.9817   1.6546   O.3       1 1      0.0000
    24 H24     -2.3383  -0.8375   2.0296   H         1 1      0.0000
    25 N25     -2.8212  -2.4366   0.0110   N.3       1 1      0.0000
    26 H26     -2.1496  -2.4175   0.7784   H         1 1      0.0000
    27 C27     -4.1130  -2.0217   0.5606   C.3       1 1      0.0000
    28 H28     -4.8808  -2.0301  -0.2102   H         1 1      0.0000
    29 H29     -4.4261  -2.6922   1.3582   H         1 1      0.0000
    30 H30     -4.0532  -1.0147   0.9684   H         1 1      0.0000
    31 OL1     -3.0971  -1.6425  -2.2094   O.3       1 1      0.0000
    32 H32     -3.2047  -2.5724  -2.5287   H         1 1      0.0000
    33 CL4     -1.3267   1.4167   1.2858   C.2       1 1      0.0000
    34 C34     -0.5615   3.6612   1.2279   C.3       1 1      0.0000
    35 H35     -1.5694   4.0716   1.0896   H         1 1      0.0000
    36 H36     -0.3368   3.6827   2.3014   H         1 1      0.0000
    37 OL3     -2.1064   1.6735   2.1613   O.2       1 1      0.0000
    38 OL4     -0.5008   2.2930   0.7271   O.3       1 1      0.0000
    39 C39      0.4277   4.4705   0.4816   C.3       1 1      0.0000
    40 H40      0.2065   4.4638  -0.5837   H         1 1      0.0000
    41 H41      0.4175   5.5033   0.8233   H         1 1      0.0000
    42 H42      1.4323   4.0770   0.6216   H         1 1      0.0000
@<TRIPOS>BOND
     1     1     2   ar
     2     1     6   ar
     3     1    11    1
     4     2     3   ar
     5     2     7    1
     6     3     4   ar
     7     3     8    1
     8     4     5   ar
     9     4    14    1
    10     5     6   ar
    11     5     9    1
    12     6    10    1
    13    11    12    2
    14    11    13    2
    15    14    15    1
    16    14    23    1
    17    14    33    1
    18    15    16    1
    19    15    17    1
    20    15    18    1
    21    18    19    1
    22    18    25    1
    23    18    31    1
    24    19    20    1
    25    19    21    1
    26    19    22    1
    27    23    24    1
    28    25    26    1
    29    25    27    1
    30    27    28    1
    31    27    29    1
    32    27    30    1
    33    31    32    1
    34    33    37    2
    35    33    38    1
    36    34    35    1
    37    34    36    1
    38    34    38    1
    39    34    39    1
    40    39    40    1
    41    39    41    1
    42    39    42    1
@<TRIPOS>SUBSTRUCTURE
     1 1           1 GROUP             0 ****  ****    0  
@<TRIPOS>MOLECULE
Molecule Name_00241
    42    42     1     0     0
SMALL
NO_CHARGES
****
Generated from the CSD

@<TRIPOS>ATOM
     1 C1       3.5122  -0.3022  -0.1884   C.ar      1 1      0.0000
     2 C2       2.8411   0.8999  -0.2240   C.ar      1 1      0.0000
     3 C3       1.4662   0.8944  -0.0745   C.ar      1 1      0.0000
     4 C4       0.7609  -0.2902   0.1060   C.ar      1 1      0.0000
     5 C5       1.4789  -1.4805   0.1392   C.ar      1 1      0.0000
     6 C6       2.8540  -1.4983  -0.0080   C.ar      1 1      0.0000
     7 H7       3.3794   1.8312  -0.3660   H         1 1      0.0000
     8 H8       0.9314   1.8376  -0.0988   H         1 1      0.0000
     9 H9       0.9533  -2.4185   0.2841   H         1 1      0.0000
    10 H10      3.4022  -2.4343   0.0181   H         1 1      0.0000
    11 N11      4.9715  -0.3086  -0.3470   N.pl3     1 1      0.0000
    12 O12      5.5520  -1.3824  -0.3132   O.2       1 1      0.0000
    13 O13      5.5405   0.7601  -0.5059   O.2       1 1      0.0000
    14 CL3     -0.7607  -0.2894   0.2597   C.3       1 1      0.0000
    15 CL1     -1.4202  -1.2321  -0.7866   C.3       1 1      0.0000
    16 H16     -1.1798  -0.8640  -1.7913   H         1 1      0.0000
    17 H17     -0.9618  -2.2244  -0.6938   H         1 1      0.0000
    18 CL      -2.9464  -1.3988  -0.6818   C.3       1 1      0.0000
    19 CL2     -3.4263  -2.2787  -1.8215   C.3       1 1      0.0000
    20 H20     -4.5060  -2.4067  -1.7817   H         1 1      0.0000
    21 H21     -3.1725  -1.8370  -2.7829   H         1 1      0.0000
    22 H22     -2.9661  -3.2631  -1.7688   H         1 1      0.0000
    23 OL2     -1.0643  -0.7081   1.5844   O.3       1 1      0.0000
    24 H24     -1.9342  -0.3256   1.8588   H         1 1      0.0000
    25 N25     -3.2981  -2.0296   0.5633   N.3       1 1      0.0000
    26 H26     -2.4326  -2.1614   1.0868   H         1 1      0.0000
    27 C27     -4.2229  -1.3066   1.4380   C.3       1 1      0.0000
    28 H28     -5.2226  -1.2856   1.0091   H         1 1      0.0000
    29 H29     -4.2828  -1.7832   2.4142   H         1 1      0.0000
    30 H30     -3.8943  -0.2794   1.5820   H         1 1      0.0000
    31 OL1     -3.5720  -0.1303  -0.8348   O.3       1 1      0.0000
    32 H32     -4.5473  -0.2556  -0.9412   H         1 1      0.0000
    33 CL4     -1.1870   1.1788   0.0598   C.2       1 1      0.0000
    34 C34     -1.6484   3.2342   1.1502   C.3       1 1      0.0000
    35 H35     -2.4060   3.3803   0.3704   H         1 1      0.0000
    36 H36     -2.0874   3.5484   2.1052   H         1 1      0.0000
    37 OL3     -1.4268   1.6597  -1.0133   O.2       1 1      0.0000
    38 OL4     -1.2535   1.8319   1.2136   O.3       1 1      0.0000
    39 C39     -0.4436   4.0401   0.8509   C.3       1 1      0.0000
    40 H40     -0.0071   3.7426  -0.1003   H         1 1      0.0000
    41 H41     -0.6916   5.0979   0.7939   H         1 1      0.0000
    42 H42      0.3097   3.9098   1.6250   H         1 1      0.0000
@<TRIPOS>BOND
     1     1     2   ar
     2     1     6   ar
     3     1    11    1
     4     2     3   ar
     5     2     7    1
     6     3     4   ar
     7     3     8    1
     8     4     5   ar
     9     4    14    1
    10     5     6   ar
    11     5     9    1
    12     6    10    1
    13    11    12    2
    14    11    13    2
    15    14    15    1
    16    14    23    1
    17    14    33    1
    18    15    16    1
    19    15    17    1
    20    15    18    1
    21    18    19    1
    22    18    25    1
    23    18    31    1
    24    19    20    1
    25    19    21    1
    26    19    22    1
    27    23    24    1
    28    25    26    1
    29    25    27    1
    30    27    28    1
    31    27    29    1
    32    27    30    1
    33    31    32    1
    34    33    37    2
    35    33    38    1
    36    34    35    1
    37    34    36    1
    38    34    38    1
    39    34    39    1
    40    39    40    1
    41    39    41    1
    42    39    42    1
@<TRIPOS>SUBSTRUCTURE
     1 1           1 GROUP             0 ****  ****    0  
@<TRIPOS>MOLECULE
Molecule Name_00242
    42    42     1     0     0
SMALL
NO_CHARGES
****
Generated from the CSD

@<TRIPOS>ATOM
     1 C1       3.6182  -0.4495  -0.1639   C.ar      1 1      0.0000
     2 C2       3.0094   0.7846  -0.2186   C.ar      1 1      0.0000
     3 C3       1.6346   0.8505  -0.0823   C.ar      1 1      0.0000
     4 C4       0.8685  -0.2948   0.1040   C.ar      1 1      0.0000
     5 C5       1.5247  -1.5196   0.1566   C.ar      1 1      0.0000
     6 C6       2.8984  -1.6087   0.0227   C.ar      1 1      0.0000
     7 H7       3.5956   1.6857  -0.3653   H         1 1      0.0000
     8 H8       1.1487   1.8193  -0.1216   H         1 1      0.0000
     9 H9       0.9509  -2.4280   0.3063   H         1 1      0.0000
    10 H10      3.3981  -2.5709   0.0639   H         1 1      0.0000
    11 N11      5.0766  -0.5318  -0.3086   N.pl3     1 1      0.0000
    12 O12      5.6015  -1.6332  -0.2578   O.2       1 1      0.0000
    13 O13      5.7007   0.5049  -0.4732   O.2       1 1      0.0000
    14 CL3     -0.6524  -0.2151   0.2431   C.3       1 1      0.0000
    15 CL1     -1.3495  -1.1346  -0.7995   C.3       1 1      0.0000
    16 H16     -1.0817  -0.7902  -1.8057   H         1 1      0.0000
    17 H17     -0.9430  -2.1478  -0.6919   H         1 1      0.0000
    18 CL      -2.8831  -1.2225  -0.7075   C.3       1 1      0.0000
    19 CL2     -3.3968  -2.0894  -1.8425   C.3       1 1      0.0000
    20 H20     -4.4819  -2.1620  -1.8116   H         1 1      0.0000
    21 H21     -3.1123  -1.6717  -2.8060   H         1 1      0.0000
    22 H22     -2.9877  -3.0953  -1.7750   H         1 1      0.0000
    23 OL2     -0.9889  -0.6033   1.5692   O.3       1 1      0.0000
    24 H24     -1.8406  -0.1742   1.8312   H         1 1      0.0000
    25 N25     -3.2776  -1.8209   0.5408   N.3       1 1      0.0000
    26 H26     -2.4248  -1.9907   1.0738   H         1 1      0.0000
    27 C27     -4.1724  -1.0423   1.3989   C.3       1 1      0.0000
    28 H28     -5.1658  -0.9753   0.9603   H         1 1      0.0000
    29 H29     -4.2652  -1.5046   2.3794   H         1 1      0.0000
    30 H30     -3.7932  -0.0317   1.5352   H         1 1      0.0000
    31 OL1     -3.4420   0.0743  -0.8798   O.3       1 1      0.0000
    32 H32     -4.4214  -0.0024  -0.9942   H         1 1      0.0000
    33 CL4     -1.0018   1.2705   0.0237   C.2       1 1      0.0000
    34 C34     -1.3678   3.3585   1.0879   C.3       1 1      0.0000
    35 H35     -0.9655   3.8900   1.9591   H         1 1      0.0000
    36 H36     -0.9164   3.7991   0.1904   H         1 1      0.0000
    37 OL3     -1.2071   1.7511  -1.0567   O.2       1 1      0.0000
    38 OL4     -1.0454   1.9388   1.1698   O.3       1 1      0.0000
    39 C39     -2.8407   3.4956   1.0400   C.3       1 1      0.0000
    40 H40     -3.2968   3.0707   1.9317   H         1 1      0.0000
    41 H41     -3.1288   4.5429   0.9781   H         1 1      0.0000
    42 H42     -3.2480   2.9803   0.1726   H         1 1      0.0000
@<TRIPOS>BOND
     1     1     2   ar
     2     1     6   ar
     3     1    11    1
     4     2     3   ar
     5     2     7    1
     6     3     4   ar
     7     3     8    1
     8     4     5   ar
     9     4    14    1
    10     5     6   ar
    11     5     9    1
    12     6    10    1
    13    11    12    2
    14    11    13    2
    15    14    15    1
    16    14    23    1
    17    14    33    1
    18    15    16    1
    19    15    17    1
    20    15    18    1
    21    18    19    1
    22    18    25    1
    23    18    31    1
    24    19    20    1
    25    19    21    1
    26    19    22    1
    27    23    24    1
    28    25    26    1
    29    25    27    1
    30    27    28    1
    31    27    29    1
    32    27    30    1
    33    31    32    1
    34    33    37    2
    35    33    38    1
    36    34    35    1
    37    34    36    1
    38    34    38    1
    39    34    39    1
    40    39    40    1
    41    39    41    1
    42    39    42    1
@<TRIPOS>SUBSTRUCTURE
     1 1           1 GROUP             0 ****  ****    0  
@<TRIPOS>MOLECULE
Molecule Name_00243
    42    42     1     0     0
SMALL
NO_CHARGES
****
Generated from the CSD

@<TRIPOS>ATOM
     1 C1       3.5304  -0.2976  -0.1277   C.ar      1 1      0.0000
     2 C2       2.8278   0.8607  -0.3752   C.ar      1 1      0.0000
     3 C3       1.4595   0.8602  -0.1735   C.ar      1 1      0.0000
     4 C4       0.7917  -0.2771   0.2669   C.ar      1 1      0.0000
     5 C5       1.5407  -1.4235   0.5078   C.ar      1 1      0.0000
     6 C6       2.9098  -1.4453   0.3129   C.ar      1 1      0.0000
     7 H7       3.3368   1.7545  -0.7209   H         1 1      0.0000
     8 H8       0.9002   1.7697  -0.3638   H         1 1      0.0000
     9 H9       1.0448  -2.3230   0.8571   H         1 1      0.0000
    10 H10      3.4825  -2.3471   0.5031   H         1 1      0.0000
    11 N11      4.9829  -0.3091  -0.3394   N.pl3     1 1      0.0000
    12 O12      5.5916  -1.3438  -0.1155   O.2       1 1      0.0000
    13 O13      5.5184   0.7164  -0.7301   O.2       1 1      0.0000
    14 CL3     -0.7231  -0.2731   0.4772   C.3       1 1      0.0000
    15 CL1     -1.3944  -1.4177  -0.3336   C.3       1 1      0.0000
    16 H16     -1.2328  -1.2322  -1.4023   H         1 1      0.0000
    17 H17     -0.8816  -2.3572  -0.0932   H         1 1      0.0000
    18 CL      -2.9014  -1.6218  -0.0978   C.3       1 1      0.0000
    19 CL2     -3.1321  -1.9482   1.3663   C.3       1 1      0.0000
    20 H20     -3.9657  -2.6379   1.4810   H         1 1      0.0000
    21 H21     -2.2484  -2.4091   1.8026   H         1 1      0.0000
    22 H22     -3.3581  -1.0465   1.9316   H         1 1      0.0000
    23 OL2     -0.9692  -0.4241   1.8698   O.3       1 1      0.0000
    24 H24     -1.7833   0.0805   2.1163   H         1 1      0.0000
    25 N25     -3.6269  -0.4208  -0.4193   N.3       1 1      0.0000
    26 H26     -2.9580   0.2327  -0.8266   H         1 1      0.0000
    27 C27     -4.7358  -0.5464  -1.3667   C.3       1 1      0.0000
    28 H28     -5.4896  -1.2341  -0.9892   H         1 1      0.0000
    29 H29     -5.2105   0.4180  -1.5348   H         1 1      0.0000
    30 H30     -4.3836  -0.9224  -2.3250   H         1 1      0.0000
    31 OL1     -3.3515  -2.7383  -0.8558   O.3       1 1      0.0000
    32 H32     -4.2728  -2.9715  -0.5820   H         1 1      0.0000
    33 CL4     -1.1937   1.1175   0.0062   C.2       1 1      0.0000
    34 C34     -1.6350   3.3497   0.6760   C.3       1 1      0.0000
    35 H35     -2.4412   3.3236  -0.0675   H         1 1      0.0000
    36 H36     -2.0228   3.8509   1.5715   H         1 1      0.0000
    37 OL3     -1.5083   1.3631  -1.1256   O.2       1 1      0.0000
    38 OL4     -1.2055   1.9950   1.0022   O.3       1 1      0.0000
    39 C39     -0.4689   4.0876   0.1409   C.3       1 1      0.0000
    40 H40     -0.0838   3.6036  -0.7541   H         1 1      0.0000
    41 H41     -0.7437   5.1082  -0.1173   H         1 1      0.0000
    42 H42      0.3323   4.1280   0.8758   H         1 1      0.0000
@<TRIPOS>BOND
     1     1     2   ar
     2     1     6   ar
     3     1    11    1
     4     2     3   ar
     5     2     7    1
     6     3     4   ar
     7     3     8    1
     8     4     5   ar
     9     4    14    1
    10     5     6   ar
    11     5     9    1
    12     6    10    1
    13    11    12    2
    14    11    13    2
    15    14    15    1
    16    14    23    1
    17    14    33    1
    18    15    16    1
    19    15    17    1
    20    15    18    1
    21    18    19    1
    22    18    25    1
    23    18    31    1
    24    19    20    1
    25    19    21    1
    26    19    22    1
    27    23    24    1
    28    25    26    1
    29    25    27    1
    30    27    28    1
    31    27    29    1
    32    27    30    1
    33    31    32    1
    34    33    37    2
    35    33    38    1
    36    34    35    1
    37    34    36    1
    38    34    38    1
    39    34    39    1
    40    39    40    1
    41    39    41    1
    42    39    42    1
@<TRIPOS>SUBSTRUCTURE
     1 1           1 GROUP             0 ****  ****    0  
@<TRIPOS>MOLECULE
Molecule Name_00244
    42    42     1     0     0
SMALL
NO_CHARGES
****
Generated from the CSD

@<TRIPOS>ATOM
     1 C1       3.6344  -0.4521  -0.0985   C.ar      1 1      0.0000
     2 C2       2.9943   0.7281  -0.4054   C.ar      1 1      0.0000
     3 C3       1.6258   0.8055  -0.2209   C.ar      1 1      0.0000
     4 C4       0.8965  -0.2759   0.2607   C.ar      1 1      0.0000
     5 C5       1.5837  -1.4468   0.5611   C.ar      1 1      0.0000
     6 C6       2.9518  -1.5463   0.3844   C.ar      1 1      0.0000
     7 H7       3.5516   1.5787  -0.7837   H         1 1      0.0000
     8 H8       1.1155   1.7326  -0.4580   H         1 1      0.0000
     9 H9       1.0391  -2.3037   0.9434   H         1 1      0.0000
    10 H10      3.4758  -2.4664   0.6212   H         1 1      0.0000
    11 N11      5.0866  -0.5462  -0.2914   N.pl3     1 1      0.0000
    12 O12      5.6395  -1.5993  -0.0146   O.2       1 1      0.0000
    13 O13      5.6775   0.4326  -0.7201   O.2       1 1      0.0000
    14 CL3     -0.6182  -0.1863   0.4518   C.3       1 1      0.0000
    15 CL1     -1.3387  -1.3305  -0.3163   C.3       1 1      0.0000
    16 H16     -1.1569  -1.2012  -1.3900   H         1 1      0.0000
    17 H17     -0.8768  -2.2830  -0.0285   H         1 1      0.0000
    18 CL      -2.8564  -1.4476  -0.0905   C.3       1 1      0.0000
    19 CL2     -3.1184  -1.6966   1.3836   C.3       1 1      0.0000
    20 H20     -3.9871  -2.3377   1.5180   H         1 1      0.0000
    21 H21     -2.2637  -2.1815   1.8507   H         1 1      0.0000
    22 H22     -3.3040  -0.7603   1.9058   H         1 1      0.0000
    23 OL2     -0.8859  -0.2625   1.8464   O.3       1 1      0.0000
    24 H24     -1.6757   0.2929   2.0603   H         1 1      0.0000
    25 N25     -3.5165  -0.2271  -0.4734   N.3       1 1      0.0000
    26 H26     -2.8111   0.3731  -0.9006   H         1 1      0.0000
    27 C27     -4.6206  -0.3387  -1.4282   C.3       1 1      0.0000
    28 H28     -5.4123  -0.9700  -1.0303   H         1 1      0.0000
    29 H29     -5.0439   0.6400  -1.6444   H         1 1      0.0000
    30 H30     -4.2781  -0.7742  -2.3646   H         1 1      0.0000
    31 OL1     -3.3550  -2.5726  -0.8043   O.3       1 1      0.0000
    32 H32     -4.2897  -2.7467  -0.5321   H         1 1      0.0000
    33 CL4     -1.0126   1.2039  -0.0857   C.2       1 1      0.0000
    34 C34     -1.3465   3.4832   0.4798   C.3       1 1      0.0000
    35 H35     -0.8954   4.2072   1.1695   H         1 1      0.0000
    36 H36     -0.9680   3.7004  -0.5266   H         1 1      0.0000
    37 OL3     -1.3027   1.4145  -1.2311   O.2       1 1      0.0000
    38 OL4     -0.9899   2.1244   0.8706   O.3       1 1      0.0000
    39 C39     -2.8217   3.5998   0.5081   C.3       1 1      0.0000
    40 H40     -3.2055   3.3964   1.5057   H         1 1      0.0000
    41 H41     -3.1349   4.6017   0.2222   H         1 1      0.0000
    42 H42     -3.2778   2.8924  -0.1813   H         1 1      0.0000
@<TRIPOS>BOND
     1     1     2   ar
     2     1     6   ar
     3     1    11    1
     4     2     3   ar
     5     2     7    1
     6     3     4   ar
     7     3     8    1
     8     4     5   ar
     9     4    14    1
    10     5     6   ar
    11     5     9    1
    12     6    10    1
    13    11    12    2
    14    11    13    2
    15    14    15    1
    16    14    23    1
    17    14    33    1
    18    15    16    1
    19    15    17    1
    20    15    18    1
    21    18    19    1
    22    18    25    1
    23    18    31    1
    24    19    20    1
    25    19    21    1
    26    19    22    1
    27    23    24    1
    28    25    26    1
    29    25    27    1
    30    27    28    1
    31    27    29    1
    32    27    30    1
    33    31    32    1
    34    33    37    2
    35    33    38    1
    36    34    35    1
    37    34    36    1
    38    34    38    1
    39    34    39    1
    40    39    40    1
    41    39    41    1
    42    39    42    1
@<TRIPOS>SUBSTRUCTURE
     1 1           1 GROUP             0 ****  ****    0  
@<TRIPOS>MOLECULE
Molecule Name_00245
    42    42     1     0     0
SMALL
NO_CHARGES
****
Generated from the CSD

@<TRIPOS>ATOM
     1 C1       3.4934  -0.3125  -0.1807   C.ar      1 1      0.0000
     2 C2       2.8556   0.9061  -0.2507   C.ar      1 1      0.0000
     3 C3       1.4831   0.9447  -0.0846   C.ar      1 1      0.0000
     4 C4       0.7476  -0.2125   0.1462   C.ar      1 1      0.0000
     5 C5       1.4325  -1.4207   0.2127   C.ar      1 1      0.0000
     6 C6       2.8045  -1.4825   0.0497   C.ar      1 1      0.0000
     7 H7       3.4178   1.8163  -0.4320   H         1 1      0.0000
     8 H8       0.9745   1.9013  -0.1357   H         1 1      0.0000
     9 H9       0.8830  -2.3378   0.3969   H         1 1      0.0000
    10 H10      3.3268  -2.4321   0.1022   H         1 1      0.0000
    11 N11      4.9497  -0.3657  -0.3567   N.pl3     1 1      0.0000
    12 O12      5.5005  -1.4537  -0.2919   O.2       1 1      0.0000
    13 O13      5.5462   0.6802  -0.5600   O.2       1 1      0.0000
    14 CL3     -0.7713  -0.1632   0.3180   C.3       1 1      0.0000
    15 CL1     -1.4703  -1.1229  -0.6863   C.3       1 1      0.0000
    16 H16     -1.2336  -0.7967  -1.7062   H         1 1      0.0000
    17 H17     -1.0380  -2.1238  -0.5646   H         1 1      0.0000
    18 CL      -2.9990  -1.2435  -0.5566   C.3       1 1      0.0000
    19 CL2     -3.5163  -2.1610  -1.6493   C.3       1 1      0.0000
    20 H20     -4.5969  -2.2687  -1.5829   H         1 1      0.0000
    21 H21     -3.2750  -1.7635  -2.6329   H         1 1      0.0000
    22 H22     -3.0712  -3.1502  -1.5650   H         1 1      0.0000
    23 OL2     -1.0692  -0.5266   1.6603   O.3       1 1      0.0000
    24 H24     -2.0451  -0.4652   1.8085   H         1 1      0.0000
    25 N25     -3.3515  -1.8072   0.7201   N.3       1 1      0.0000
    26 H26     -3.9484  -1.1282   1.1924   H         1 1      0.0000
    27 C27     -4.0747  -3.0800   0.7089   C.3       1 1      0.0000
    28 H28     -3.4914  -3.8507   0.2093   H         1 1      0.0000
    29 H29     -4.2810  -3.4153   1.7232   H         1 1      0.0000
    30 H30     -5.0233  -2.9801   0.1855   H         1 1      0.0000
    31 OL1     -3.5928   0.0332  -0.7603   O.3       1 1      0.0000
    32 H32     -4.5766  -0.0489  -0.7023   H         1 1      0.0000
    33 CL4     -1.1592   1.3085   0.0716   C.2       1 1      0.0000
    34 C34     -1.5662   3.4088   1.0961   C.3       1 1      0.0000
    35 H35     -2.3200   3.5499   0.3117   H         1 1      0.0000
    36 H36     -1.9965   3.7645   2.0404   H         1 1      0.0000
    37 OL3     -1.3866   1.7613  -1.0164   O.2       1 1      0.0000
    38 OL4     -1.2081   1.9994   1.2040   O.3       1 1      0.0000
    39 C39     -0.3409   4.1730   0.7719   C.3       1 1      0.0000
    40 H40      0.0873   3.8342  -0.1692   H         1 1      0.0000
    41 H41     -0.5612   5.2346   0.6813   H         1 1      0.0000
    42 H42      0.4090   4.0477   1.5501   H         1 1      0.0000
@<TRIPOS>BOND
     1     1     2   ar
     2     1     6   ar
     3     1    11    1
     4     2     3   ar
     5     2     7    1
     6     3     4   ar
     7     3     8    1
     8     4     5   ar
     9     4    14    1
    10     5     6   ar
    11     5     9    1
    12     6    10    1
    13    11    12    2
    14    11    13    2
    15    14    15    1
    16    14    23    1
    17    14    33    1
    18    15    16    1
    19    15    17    1
    20    15    18    1
    21    18    19    1
    22    18    25    1
    23    18    31    1
    24    19    20    1
    25    19    21    1
    26    19    22    1
    27    23    24    1
    28    25    26    1
    29    25    27    1
    30    27    28    1
    31    27    29    1
    32    27    30    1
    33    31    32    1
    34    33    37    2
    35    33    38    1
    36    34    35    1
    37    34    36    1
    38    34    38    1
    39    34    39    1
    40    39    40    1
    41    39    41    1
    42    39    42    1
@<TRIPOS>SUBSTRUCTURE
     1 1           1 GROUP             0 ****  ****    0  
@<TRIPOS>MOLECULE
Molecule Name_00246
    42    42     1     0     0
SMALL
NO_CHARGES
****
Generated from the CSD

@<TRIPOS>ATOM
     1 C1       3.6001  -0.4584  -0.1554   C.ar      1 1      0.0000
     2 C2       3.0242   0.7893  -0.2461   C.ar      1 1      0.0000
     3 C3       1.6538   0.8978  -0.0942   C.ar      1 1      0.0000
     4 C4       0.8597  -0.2186   0.1428   C.ar      1 1      0.0000
     5 C5       1.4831  -1.4584   0.2304   C.ar      1 1      0.0000
     6 C6       2.8519  -1.5900   0.0818   C.ar      1 1      0.0000
     7 H7       3.6325   1.6683  -0.4325   H         1 1      0.0000
     8 H8       1.1938   1.8777  -0.1617   H         1 1      0.0000
     9 H9       0.8871  -2.3448   0.4199   H         1 1      0.0000
    10 H10      3.3259  -2.5635   0.1508   H         1 1      0.0000
    11 N11      5.0536  -0.5858  -0.3161   N.pl3     1 1      0.0000
    12 O12      5.5491  -1.6988  -0.2330   O.2       1 1      0.0000
    13 O13      5.7031   0.4268  -0.5258   O.2       1 1      0.0000
    14 CL3     -0.6564  -0.0921   0.2988   C.3       1 1      0.0000
    15 CL1     -1.3928  -1.0283  -0.7010   C.3       1 1      0.0000
    16 H16     -1.1306  -0.7267  -1.7223   H         1 1      0.0000
    17 H17     -1.0118  -2.0478  -0.5632   H         1 1      0.0000
    18 CL      -2.9267  -1.0715  -0.5852   C.3       1 1      0.0000
    19 CL2     -3.4785  -1.9756  -1.6721   C.3       1 1      0.0000
    20 H20     -4.5637  -2.0289  -1.6154   H         1 1      0.0000
    21 H21     -3.2086  -1.6026  -2.6579   H         1 1      0.0000
    22 H22     -3.0839  -2.9845  -1.5718   H         1 1      0.0000
    23 OL2     -0.9846  -0.4239   1.6422   O.3       1 1      0.0000
    24 H24     -1.9576  -0.3125   1.7800   H         1 1      0.0000
    25 N25     -3.3187  -1.6014   0.6944   N.3       1 1      0.0000
    26 H26     -3.8856  -0.8880   1.1526   H         1 1      0.0000
    27 C27     -4.1040  -2.8369   0.6910   C.3       1 1      0.0000
    28 H28     -3.5550  -3.6415   0.2063   H         1 1      0.0000
    29 H29     -4.3362  -3.1491   1.7070   H         1 1      0.0000
    30 H30     -5.0415  -2.6965   0.1569   H         1 1      0.0000
    31 OL1     -3.4544   0.2304  -0.8099   O.3       1 1      0.0000
    32 H32     -4.4417   0.1978  -0.7608   H         1 1      0.0000
    33 CL4     -0.9685   1.3938   0.0312   C.2       1 1      0.0000
    34 C34     -1.2805   3.5241   1.0268   C.3       1 1      0.0000
    35 H35     -0.8637   4.0734   1.8800   H         1 1      0.0000
    36 H36     -0.8192   3.9236   0.1152   H         1 1      0.0000
    37 OL3     -1.1630   1.8440  -1.0642   O.2       1 1      0.0000
    38 OL4     -0.9938   2.1001   1.1549   O.3       1 1      0.0000
    39 C39     -2.7495   3.6966   0.9750   C.3       1 1      0.0000
    40 H40     -3.2150   3.3127   1.8804   H         1 1      0.0000
    41 H41     -3.0112   4.7483   0.8791   H         1 1      0.0000
    42 H42     -3.1707   3.1637   0.1251   H         1 1      0.0000
@<TRIPOS>BOND
     1     1     2   ar
     2     1     6   ar
     3     1    11    1
     4     2     3   ar
     5     2     7    1
     6     3     4   ar
     7     3     8    1
     8     4     5   ar
     9     4    14    1
    10     5     6   ar
    11     5     9    1
    12     6    10    1
    13    11    12    2
    14    11    13    2
    15    14    15    1
    16    14    23    1
    17    14    33    1
    18    15    16    1
    19    15    17    1
    20    15    18    1
    21    18    19    1
    22    18    25    1
    23    18    31    1
    24    19    20    1
    25    19    21    1
    26    19    22    1
    27    23    24    1
    28    25    26    1
    29    25    27    1
    30    27    28    1
    31    27    29    1
    32    27    30    1
    33    31    32    1
    34    33    37    2
    35    33    38    1
    36    34    35    1
    37    34    36    1
    38    34    38    1
    39    34    39    1
    40    39    40    1
    41    39    41    1
    42    39    42    1
@<TRIPOS>SUBSTRUCTURE
     1 1           1 GROUP             0 ****  ****    0  
@<TRIPOS>MOLECULE
Molecule Name_00247
    42    42     1     0     0
SMALL
NO_CHARGES
****
Generated from the CSD

@<TRIPOS>ATOM
     1 C1       3.5228  -0.2969  -0.1785   C.ar      1 1      0.0000
     2 C2       2.8250   0.8884  -0.2482   C.ar      1 1      0.0000
     3 C3       1.4516   0.8576  -0.0878   C.ar      1 1      0.0000
     4 C4       0.7742  -0.3357   0.1370   C.ar      1 1      0.0000
     5 C5       1.5186  -1.5082   0.2034   C.ar      1 1      0.0000
     6 C6       2.8926  -1.5006   0.0461   C.ar      1 1      0.0000
     7 H7       3.3415   1.8261  -0.4249   H         1 1      0.0000
     8 H8       0.8958   1.7875  -0.1387   H         1 1      0.0000
     9 H9       1.0150  -2.4522   0.3831   H         1 1      0.0000
    10 H10      3.4617  -2.4229   0.0985   H         1 1      0.0000
    11 N11      4.9807  -0.2765  -0.3484   N.pl3     1 1      0.0000
    12 O12      5.5852  -1.3356  -0.2840   O.2       1 1      0.0000
    13 O13      5.5248   0.7986  -0.5467   O.2       1 1      0.0000
    14 CL3     -0.7460  -0.3632   0.3025   C.3       1 1      0.0000
    15 CL1     -1.3918  -1.3540  -0.7071   C.3       1 1      0.0000
    16 H16     -1.1657  -1.0148  -1.7252   H         1 1      0.0000
    17 H17     -0.9119  -2.3328  -0.5845   H         1 1      0.0000
    18 CL      -2.9135  -1.5492  -0.5861   C.3       1 1      0.0000
    19 CL2     -3.2103  -2.3490   0.6691   C.3       1 1      0.0000
    20 H20     -4.2673  -2.6006   0.7252   H         1 1      0.0000
    21 H21     -2.6403  -3.2757   0.6798   H         1 1      0.0000
    22 H22     -2.9495  -1.7804   1.5594   H         1 1      0.0000
    23 OL2     -1.0308  -0.7447   1.6426   O.3       1 1      0.0000
    24 H24     -1.8400  -0.2695   1.9547   H         1 1      0.0000
    25 N25     -3.5765  -0.2755  -0.4853   N.3       1 1      0.0000
    26 H26     -4.1975  -0.1970  -1.2907   H         1 1      0.0000
    27 C27     -4.3904  -0.0414   0.7088   C.3       1 1      0.0000
    28 H28     -3.7703  -0.0331   1.6027   H         1 1      0.0000
    29 H29     -4.9041   0.9155   0.6438   H         1 1      0.0000
    30 H30     -5.1401  -0.8214   0.8235   H         1 1      0.0000
    31 OL1     -3.3819  -2.3104  -1.6929   O.3       1 1      0.0000
    32 H32     -4.3556  -2.4576  -1.6021   H         1 1      0.0000
    33 CL4     -1.2062   1.0879   0.0581   C.2       1 1      0.0000
    34 C34     -1.6813   3.1745   1.0812   C.3       1 1      0.0000
    35 H35     -2.4607   3.2762   0.3159   H         1 1      0.0000
    36 H36     -2.1028   3.5168   2.0344   H         1 1      0.0000
    37 OL3     -1.4819   1.5227  -1.0261   O.2       1 1      0.0000
    38 OL4     -1.2572   1.7834   1.1876   O.3       1 1      0.0000
    39 C39     -0.5006   3.9910   0.7210   C.3       1 1      0.0000
    40 H40     -0.0819   3.6656  -0.2290   H         1 1      0.0000
    41 H41     -0.7709   5.0410   0.6303   H         1 1      0.0000
    42 H42      0.2741   3.9048   1.4801   H         1 1      0.0000
@<TRIPOS>BOND
     1     1     2   ar
     2     1     6   ar
     3     1    11    1
     4     2     3   ar
     5     2     7    1
     6     3     4   ar
     7     3     8    1
     8     4     5   ar
     9     4    14    1
    10     5     6   ar
    11     5     9    1
    12     6    10    1
    13    11    12    2
    14    11    13    2
    15    14    15    1
    16    14    23    1
    17    14    33    1
    18    15    16    1
    19    15    17    1
    20    15    18    1
    21    18    19    1
    22    18    25    1
    23    18    31    1
    24    19    20    1
    25    19    21    1
    26    19    22    1
    27    23    24    1
    28    25    26    1
    29    25    27    1
    30    27    28    1
    31    27    29    1
    32    27    30    1
    33    31    32    1
    34    33    37    2
    35    33    38    1
    36    34    35    1
    37    34    36    1
    38    34    38    1
    39    34    39    1
    40    39    40    1
    41    39    41    1
    42    39    42    1
@<TRIPOS>SUBSTRUCTURE
     1 1           1 GROUP             0 ****  ****    0  
@<TRIPOS>MOLECULE
Molecule Name_00248
    42    42     1     0     0
SMALL
NO_CHARGES
****
Generated from the CSD

@<TRIPOS>ATOM
     1 C1       3.6275  -0.4504  -0.1516   C.ar      1 1      0.0000
     2 C2       2.9933   0.7677  -0.2553   C.ar      1 1      0.0000
     3 C3       1.6187   0.8122  -0.1089   C.ar      1 1      0.0000
     4 C4       0.8777  -0.3386   0.1355   C.ar      1 1      0.0000
     5 C5       1.5590  -1.5465   0.2362   C.ar      1 1      0.0000
     6 C6       2.9330  -1.6142   0.0933   C.ar      1 1      0.0000
     7 H7       3.5598   1.6728  -0.4476   H         1 1      0.0000
     8 H8       1.1130   1.7684  -0.1866   H         1 1      0.0000
     9 H9       1.0050  -2.4586   0.4317   H         1 1      0.0000
    10 H10      3.4524  -2.5635   0.1725   H         1 1      0.0000
    11 N11      5.0860  -0.5101  -0.3064   N.pl3     1 1      0.0000
    12 O12      5.6335  -1.5975  -0.2118   O.2       1 1      0.0000
    13 O13      5.6874   0.5304  -0.5231   O.2       1 1      0.0000
    14 CL3     -0.6433  -0.2830   0.2854   C.3       1 1      0.0000
    15 CL1     -1.3306  -1.2618  -0.7084   C.3       1 1      0.0000
    16 H16     -1.0775  -0.9584  -1.7314   H         1 1      0.0000
    17 H17     -0.9038  -2.2612  -0.5587   H         1 1      0.0000
    18 CL      -2.8615  -1.3746  -0.5992   C.3       1 1      0.0000
    19 CL2     -3.2115  -2.1286   0.6705   C.3       1 1      0.0000
    20 H20     -4.2808  -2.3234   0.7211   H         1 1      0.0000
    21 H21     -2.6909  -3.0832   0.7082   H         1 1      0.0000
    22 H22     -2.9298  -1.5540   1.5504   H         1 1      0.0000
    23 OL2     -0.9603  -0.6181   1.6307   O.3       1 1      0.0000
    24 H24     -1.7464  -0.0943   1.9234   H         1 1      0.0000
    25 N25     -3.4578  -0.0661  -0.5342   N.3       1 1      0.0000
    26 H26     -4.0662   0.0261  -1.3476   H         1 1      0.0000
    27 C27     -4.2695   0.2377   0.6456   C.3       1 1      0.0000
    28 H28     -3.6582   0.2343   1.5456   H         1 1      0.0000
    29 H29     -4.7318   1.2183   0.5536   H         1 1      0.0000
    30 H30     -5.0601  -0.4994   0.7700   H         1 1      0.0000
    31 OL1     -3.3586  -2.1356  -1.6935   O.3       1 1      0.0000
    32 H32     -4.3396  -2.2298  -1.6097   H         1 1      0.0000
    33 CL4     -1.0246   1.1841   0.0035   C.2       1 1      0.0000
    34 C34     -1.3993   3.3157   0.9743   C.3       1 1      0.0000
    35 H35     -0.9835   3.8959   1.8073   H         1 1      0.0000
    36 H36     -0.9797   3.7189   0.0444   H         1 1      0.0000
    37 OL3     -1.2669   1.6075  -1.0930   O.2       1 1      0.0000
    38 OL4     -1.0497   1.9072   1.1165   O.3       1 1      0.0000
    39 C39     -2.8752   3.4260   0.9600   C.3       1 1      0.0000
    40 H40     -3.3016   3.0140   1.8722   H         1 1      0.0000
    41 H41     -3.1834   4.4665   0.8816   H         1 1      0.0000
    42 H42     -3.2943   2.8838   0.1149   H         1 1      0.0000
@<TRIPOS>BOND
     1     1     2   ar
     2     1     6   ar
     3     1    11    1
     4     2     3   ar
     5     2     7    1
     6     3     4   ar
     7     3     8    1
     8     4     5   ar
     9     4    14    1
    10     5     6   ar
    11     5     9    1
    12     6    10    1
    13    11    12    2
    14    11    13    2
    15    14    15    1
    16    14    23    1
    17    14    33    1
    18    15    16    1
    19    15    17    1
    20    15    18    1
    21    18    19    1
    22    18    25    1
    23    18    31    1
    24    19    20    1
    25    19    21    1
    26    19    22    1
    27    23    24    1
    28    25    26    1
    29    25    27    1
    30    27    28    1
    31    27    29    1
    32    27    30    1
    33    31    32    1
    34    33    37    2
    35    33    38    1
    36    34    35    1
    37    34    36    1
    38    34    38    1
    39    34    39    1
    40    39    40    1
    41    39    41    1
    42    39    42    1
@<TRIPOS>SUBSTRUCTURE
     1 1           1 GROUP             0 ****  ****    0  
@<TRIPOS>MOLECULE
Molecule Name_00249
    42    42     1     0     0
SMALL
NO_CHARGES
****
Generated from the CSD

@<TRIPOS>ATOM
     1 C1       3.5890  -0.3422  -0.2163   C.ar      1 1      0.0000
     2 C2       3.0050  -1.2025   0.6867   C.ar      1 1      0.0000
     3 C3       1.6292  -1.1810   0.8260   C.ar      1 1      0.0000
     4 C4       0.8381  -0.3143   0.0802   C.ar      1 1      0.0000
     5 C5       1.4690   0.5345  -0.8224   C.ar      1 1      0.0000
     6 C6       2.8433   0.5299  -0.9780   C.ar      1 1      0.0000
     7 H7       3.6112  -1.8824   1.2762   H         1 1      0.0000
     8 H8       1.1622  -1.8577   1.5333   H         1 1      0.0000
     9 H9       0.8744   1.2169  -1.4206   H         1 1      0.0000
    10 H10      3.3234   1.1986  -1.6847   H         1 1      0.0000
    11 N11      5.0486  -0.3552  -0.3718   N.pl3     1 1      0.0000
    12 O12      5.6957  -1.1343   0.3105   O.2       1 1      0.0000
    13 O13      5.5512   0.4135  -1.1765   O.2       1 1      0.0000
    14 CL3     -0.6819  -0.2888   0.2475   C.3       1 1      0.0000
    15 CL1     -1.3598  -1.2948  -0.7254   C.3       1 1      0.0000
    16 H16     -1.0517  -1.0541  -1.7500   H         1 1      0.0000
    17 H17     -0.9759  -2.2987  -0.5058   H         1 1      0.0000
    18 CL      -2.8971  -1.3505  -0.6801   C.3       1 1      0.0000
    19 CL2     -3.3551  -2.7220  -1.1410   C.3       1 1      0.0000
    20 H20     -4.0632  -2.6362  -1.9626   H         1 1      0.0000
    21 H21     -2.5101  -3.3163  -1.4824   H         1 1      0.0000
    22 H22     -3.8413  -3.2592  -0.3293   H         1 1      0.0000
    23 OL2     -0.9761  -0.6128   1.6006   O.3       1 1      0.0000
    24 H24     -0.7860  -1.5705   1.7581   H         1 1      0.0000
    25 N25     -3.3676  -1.1379   0.6635   N.3       1 1      0.0000
    26 H26     -3.0532  -0.2100   0.9473   H         1 1      0.0000
    27 C27     -4.8152  -1.1845   0.8771   C.3       1 1      0.0000
    28 H28     -5.0860  -2.0352   1.4989   H         1 1      0.0000
    29 H29     -5.1614  -0.2793   1.3717   H         1 1      0.0000
    30 H30     -5.3421  -1.2758  -0.0704   H         1 1      0.0000
    31 OL1     -3.4316  -0.3979  -1.5915   O.3       1 1      0.0000
    32 H32     -4.4131  -0.5073  -1.6432   H         1 1      0.0000
    33 CL4     -1.0975   1.1661  -0.0488   C.2       1 1      0.0000
    34 C34     -1.4791   3.3088   0.8945   C.3       1 1      0.0000
    35 H35     -0.7966   3.8108   0.1977   H         1 1      0.0000
    36 H36     -2.4926   3.3839   0.4815   H         1 1      0.0000
    37 OL3     -1.3813   1.5649  -1.1446   O.2       1 1      0.0000
    38 OL4     -1.1006   1.9093   1.0511   O.3       1 1      0.0000
    39 C39     -1.4192   3.9550   2.2247   C.3       1 1      0.0000
    40 H40     -0.4145   3.8948   2.6378   H         1 1      0.0000
    41 H41     -1.6951   5.0052   2.1560   H         1 1      0.0000
    42 H42     -2.1012   3.4702   2.9201   H         1 1      0.0000
@<TRIPOS>BOND
     1     1     2   ar
     2     1     6   ar
     3     1    11    1
     4     2     3   ar
     5     2     7    1
     6     3     4   ar
     7     3     8    1
     8     4     5   ar
     9     4    14    1
    10     5     6   ar
    11     5     9    1
    12     6    10    1
    13    11    12    2
    14    11    13    2
    15    14    15    1
    16    14    23    1
    17    14    33    1
    18    15    16    1
    19    15    17    1
    20    15    18    1
    21    18    19    1
    22    18    25    1
    23    18    31    1
    24    19    20    1
    25    19    21    1
    26    19    22    1
    27    23    24    1
    28    25    26    1
    29    25    27    1
    30    27    28    1
    31    27    29    1
    32    27    30    1
    33    31    32    1
    34    33    37    2
    35    33    38    1
    36    34    35    1
    37    34    36    1
    38    34    38    1
    39    34    39    1
    40    39    40    1
    41    39    41    1
    42    39    42    1
@<TRIPOS>SUBSTRUCTURE
     1 1           1 GROUP             0 ****  ****    0  
@<TRIPOS>MOLECULE
Molecule Name_00250
    42    42     1     0     0
SMALL
NO_CHARGES
****
Generated from the CSD

@<TRIPOS>ATOM
     1 C1       2.8308  -0.6928  -0.2028   C.ar      1 1      0.0000
     2 C2       2.0839  -1.2378   0.8179   C.ar      1 1      0.0000
     3 C3       0.7761  -0.8170   0.9779   C.ar      1 1      0.0000
     4 C4       0.2130   0.1365   0.1371   C.ar      1 1      0.0000
     5 C5       1.0019   0.6576  -0.8825   C.ar      1 1      0.0000
     6 C6       2.3118   0.2512  -1.0609   C.ar      1 1      0.0000
     7 H7       2.5121  -1.9812   1.4820   H         1 1      0.0000
     8 H8       0.1812  -1.2438   1.7779   H         1 1      0.0000
     9 H9       0.5850   1.3991  -1.5558   H         1 1      0.0000
    10 H10      2.9173   0.6669  -1.8594   H         1 1      0.0000
    11 N11      4.2203  -1.1309  -0.3815   N.pl3     1 1      0.0000
    12 O12      4.6658  -1.9687   0.3872   O.2       1 1      0.0000
    13 O13      4.8694  -0.6384  -1.2911   O.2       1 1      0.0000
    14 CL3     -1.2305   0.6048   0.3270   C.3       1 1      0.0000
    15 CL1     -2.2018  -0.2358  -0.5495   C.3       1 1      0.0000
    16 H16     -3.2159   0.1650  -0.4326   H         1 1      0.0000
    17 H17     -1.9246  -0.0967  -1.6017   H         1 1      0.0000
    18 CL      -2.2397  -1.7469  -0.2608   C.3       1 1      0.0000
    19 CL2     -3.6421  -2.2645  -0.5232   C.3       1 1      0.0000
    20 H20     -3.7045  -3.3309  -0.3167   H         1 1      0.0000
    21 H21     -4.3661  -1.7541   0.1084   H         1 1      0.0000
    22 H22     -3.9247  -2.1033  -1.5614   H         1 1      0.0000
    23 OL2     -1.5511   0.4778   1.7067   O.3       1 1      0.0000
    24 H24     -2.4690   0.8112   1.8629   H         1 1      0.0000
    25 N25     -1.3243  -2.4459  -1.1240   N.3       1 1      0.0000
    26 H26     -0.3944  -2.0678  -0.9429   H         1 1      0.0000
    27 C27     -1.2356  -3.8984  -0.9639   C.3       1 1      0.0000
    28 H28     -2.2011  -4.3660  -1.1454   H         1 1      0.0000
    29 H29     -0.5177  -4.3205  -1.6640   H         1 1      0.0000
    30 H30     -0.9181  -4.1566   0.0441   H         1 1      0.0000
    31 OL1     -1.9564  -1.9725   1.1150   O.3       1 1      0.0000
    32 H32     -2.0229  -2.9398   1.3099   H         1 1      0.0000
    33 CL4     -1.2305   2.0920  -0.0797   C.2       1 1      0.0000
    34 C34     -0.9619   4.3183   0.6937   C.3       1 1      0.0000
    35 H35     -0.1903   4.5544  -0.0495   H         1 1      0.0000
    36 H36     -1.9271   4.6465   0.2885   H         1 1      0.0000
    37 OL3     -1.4284   2.4733  -1.2003   O.2       1 1      0.0000
    38 OL4     -0.9867   2.8843   0.9571   O.3       1 1      0.0000
    39 C39     -0.6771   5.0170   1.9669   C.3       1 1      0.0000
    40 H40      0.2839   4.7056   2.3711   H         1 1      0.0000
    41 H41     -0.6489   6.0943   1.8178   H         1 1      0.0000
    42 H42     -1.4434   4.7972   2.7073   H         1 1      0.0000
@<TRIPOS>BOND
     1     1     2   ar
     2     1     6   ar
     3     1    11    1
     4     2     3   ar
     5     2     7    1
     6     3     4   ar
     7     3     8    1
     8     4     5   ar
     9     4    14    1
    10     5     6   ar
    11     5     9    1
    12     6    10    1
    13    11    12    2
    14    11    13    2
    15    14    15    1
    16    14    23    1
    17    14    33    1
    18    15    16    1
    19    15    17    1
    20    15    18    1
    21    18    19    1
    22    18    25    1
    23    18    31    1
    24    19    20    1
    25    19    21    1
    26    19    22    1
    27    23    24    1
    28    25    26    1
    29    25    27    1
    30    27    28    1
    31    27    29    1
    32    27    30    1
    33    31    32    1
    34    33    37    2
    35    33    38    1
    36    34    35    1
    37    34    36    1
    38    34    38    1
    39    34    39    1
    40    39    40    1
    41    39    41    1
    42    39    42    1
@<TRIPOS>SUBSTRUCTURE
     1 1           1 GROUP             0 ****  ****    0  
@<TRIPOS>MOLECULE
Molecule Name_00251
    42    42     1     0     0
SMALL
NO_CHARGES
****
Generated from the CSD

@<TRIPOS>ATOM
     1 C1       2.8525  -0.6982  -0.1751   C.ar      1 1      0.0000
     2 C2       2.1552  -1.1938   0.9042   C.ar      1 1      0.0000
     3 C3       0.8422  -0.7971   1.0820   C.ar      1 1      0.0000
     4 C4       0.2252   0.0843   0.2012   C.ar      1 1      0.0000
     5 C5       0.9652   0.5572  -0.8768   C.ar      1 1      0.0000
     6 C6       2.2793   0.1737  -1.0739   C.ar      1 1      0.0000
     7 H7       2.6257  -1.8808   1.5998   H         1 1      0.0000
     8 H8       0.2862  -1.1856   1.9282   H         1 1      0.0000
     9 H9       0.5058   1.2419  -1.5819   H         1 1      0.0000
    10 H10      2.8463   0.5514  -1.9184   H         1 1      0.0000
    11 N11      4.2470  -1.1114  -0.3732   N.pl3     1 1      0.0000
    12 O12      4.7408  -1.8850   0.4322   O.2       1 1      0.0000
    13 O13      4.8517  -0.6632  -1.3348   O.2       1 1      0.0000
    14 CL3     -1.2236   0.5269   0.4105   C.3       1 1      0.0000
    15 CL1     -2.2012  -0.4081  -0.3567   C.3       1 1      0.0000
    16 H16     -3.2233  -0.0344  -0.2210   H         1 1      0.0000
    17 H17     -1.9766  -0.3371  -1.4281   H         1 1      0.0000
    18 CL      -2.1698  -1.8944   0.0409   C.3       1 1      0.0000
    19 CL2     -3.5488  -2.4915  -0.1721   C.3       1 1      0.0000
    20 H20     -3.5130  -3.5771  -0.1084   H         1 1      0.0000
    21 H21     -4.2459  -2.1306   0.5812   H         1 1      0.0000
    22 H22     -3.9386  -2.2222  -1.1515   H         1 1      0.0000
    23 OL2     -1.4882   0.5033   1.8076   O.3       1 1      0.0000
    24 H24     -2.4094   0.8231   1.9731   H         1 1      0.0000
    25 N25     -1.2281  -2.6130  -0.7768   N.3       1 1      0.0000
    26 H26     -1.2265  -3.5799  -0.4519   H         1 1      0.0000
    27 C27     -1.4858  -2.6447  -2.2175   C.3       1 1      0.0000
    28 H28     -1.2715  -1.6783  -2.6690   H         1 1      0.0000
    29 H29     -0.8626  -3.3919  -2.7044   H         1 1      0.0000
    30 H30     -2.5269  -2.8890  -2.4179   H         1 1      0.0000
    31 OL1     -1.8701  -2.0067   1.4270   O.3       1 1      0.0000
    32 H32     -1.8751  -2.9605   1.6882   H         1 1      0.0000
    33 CL4     -1.2841   1.9757  -0.1133   C.2       1 1      0.0000
    34 C34     -1.0524   4.2637   0.4680   C.3       1 1      0.0000
    35 H35     -0.3178   4.4593  -0.3229   H         1 1      0.0000
    36 H36     -2.0420   4.5321   0.0781   H         1 1      0.0000
    37 OL3     -1.5369   2.2595  -1.2517   O.2       1 1      0.0000
    38 OL4     -1.0239   2.8556   0.8460   O.3       1 1      0.0000
    39 C39     -0.7392   5.0706   1.6686   C.3       1 1      0.0000
    40 H40      0.2457   4.8187   2.0563   H         1 1      0.0000
    41 H41     -0.7492   6.1327   1.4329   H         1 1      0.0000
    42 H42     -1.4691   4.8911   2.4551   H         1 1      0.0000
@<TRIPOS>BOND
     1     1     2   ar
     2     1     6   ar
     3     1    11    1
     4     2     3   ar
     5     2     7    1
     6     3     4   ar
     7     3     8    1
     8     4     5   ar
     9     4    14    1
    10     5     6   ar
    11     5     9    1
    12     6    10    1
    13    11    12    2
    14    11    13    2
    15    14    15    1
    16    14    23    1
    17    14    33    1
    18    15    16    1
    19    15    17    1
    20    15    18    1
    21    18    19    1
    22    18    25    1
    23    18    31    1
    24    19    20    1
    25    19    21    1
    26    19    22    1
    27    23    24    1
    28    25    26    1
    29    25    27    1
    30    27    28    1
    31    27    29    1
    32    27    30    1
    33    31    32    1
    34    33    37    2
    35    33    38    1
    36    34    35    1
    37    34    36    1
    38    34    38    1
    39    34    39    1
    40    39    40    1
    41    39    41    1
    42    39    42    1
@<TRIPOS>SUBSTRUCTURE
     1 1           1 GROUP             0 ****  ****    0  
@<TRIPOS>MOLECULE
Molecule Name_00252
    42    42     1     0     0
SMALL
NO_CHARGES
****
Generated from the CSD

@<TRIPOS>ATOM
     1 C1       3.4674  -0.4453  -0.1717   C.ar      1 1      0.0000
     2 C2       2.8311  -1.1777   0.8058   C.ar      1 1      0.0000
     3 C3       1.4607  -1.0497   0.9413   C.ar      1 1      0.0000
     4 C4       0.7264  -0.2028   0.1186   C.ar      1 1      0.0000
     5 C5       1.4088   0.5150  -0.8574   C.ar      1 1      0.0000
     6 C6       2.7787   0.4023  -1.0106   C.ar      1 1      0.0000
     7 H7       3.3928  -1.8407   1.4555   H         1 1      0.0000
     8 H8       0.9526  -1.6255   1.7072   H         1 1      0.0000
     9 H9       0.8588   1.1788  -1.5159   H         1 1      0.0000
    10 H10      3.2995   0.9694  -1.7751   H         1 1      0.0000
    11 N11      4.9219  -0.5722  -0.3240   N.pl3     1 1      0.0000
    12 O12      5.5182  -1.3279   0.4273   O.2       1 1      0.0000
    13 O13      5.4713   0.0837  -1.1952   O.2       1 1      0.0000
    14 CL3     -0.7874  -0.0584   0.2815   C.3       1 1      0.0000
    15 CL1     -1.5374  -1.1006  -0.5958   C.3       1 1      0.0000
    16 H16     -1.3219  -0.8914  -1.6506   H         1 1      0.0000
    17 H17     -1.1260  -2.0940  -0.3785   H         1 1      0.0000
    18 CL      -3.0643  -1.1654  -0.4149   C.3       1 1      0.0000
    19 CL2     -3.7042  -1.5217  -1.7442   C.3       1 1      0.0000
    20 H20     -4.7484  -1.7953  -1.6085   H         1 1      0.0000
    21 H21     -3.6610  -0.6791  -2.4311   H         1 1      0.0000
    22 H22     -3.1908  -2.3624  -2.2063   H         1 1      0.0000
    23 OL2     -1.0957  -0.2366   1.6584   O.3       1 1      0.0000
    24 H24     -2.0666  -0.1097   1.7969   H         1 1      0.0000
    25 N25     -3.4131  -2.1775   0.5474   N.3       1 1      0.0000
    26 H26     -4.4277  -2.1555   0.6501   H         1 1      0.0000
    27 C27     -3.0439  -3.5571   0.2261   C.3       1 1      0.0000
    28 H28     -1.9724  -3.7064   0.3410   H         1 1      0.0000
    29 H29     -3.5560  -4.2565   0.8837   H         1 1      0.0000
    30 H30     -3.3117  -3.7990  -0.8003   H         1 1      0.0000
    31 OL1     -3.5510   0.1183  -0.0420   O.3       1 1      0.0000
    32 H32     -4.5351   0.0828   0.0494   H         1 1      0.0000
    33 CL4     -1.1046   1.3883  -0.1470   C.2       1 1      0.0000
    34 C34     -1.3345   3.6292   0.5959   C.3       1 1      0.0000
    35 H35     -0.6232   4.0177  -0.1433   H         1 1      0.0000
    36 H36     -2.3427   3.7352   0.1768   H         1 1      0.0000
    37 OL3     -1.3665   1.7037  -1.2750   O.2       1 1      0.0000
    38 OL4     -1.0512   2.2273   0.8803   O.3       1 1      0.0000
    39 C39     -1.2236   4.3886   1.8614   C.3       1 1      0.0000
    40 H40     -0.2231   4.2980   2.2792   H         1 1      0.0000
    41 H41     -1.4278   5.4445   1.6966   H         1 1      0.0000
    42 H42     -1.9333   4.0171   2.5976   H         1 1      0.0000
@<TRIPOS>BOND
     1     1     2   ar
     2     1     6   ar
     3     1    11    1
     4     2     3   ar
     5     2     7    1
     6     3     4   ar
     7     3     8    1
     8     4     5   ar
     9     4    14    1
    10     5     6   ar
    11     5     9    1
    12     6    10    1
    13    11    12    2
    14    11    13    2
    15    14    15    1
    16    14    23    1
    17    14    33    1
    18    15    16    1
    19    15    17    1
    20    15    18    1
    21    18    19    1
    22    18    25    1
    23    18    31    1
    24    19    20    1
    25    19    21    1
    26    19    22    1
    27    23    24    1
    28    25    26    1
    29    25    27    1
    30    27    28    1
    31    27    29    1
    32    27    30    1
    33    31    32    1
    34    33    37    2
    35    33    38    1
    36    34    35    1
    37    34    36    1
    38    34    38    1
    39    34    39    1
    40    39    40    1
    41    39    41    1
    42    39    42    1
@<TRIPOS>SUBSTRUCTURE
     1 1           1 GROUP             0 ****  ****    0  
@<TRIPOS>MOLECULE
Molecule Name_00253
    42    42     1     0     0
SMALL
NO_CHARGES
****
Generated from the CSD

@<TRIPOS>ATOM
     1 C1       3.4274  -0.3390  -0.1314   C.ar      1 1      0.0000
     2 C2       2.5723   0.0188  -1.1500   C.ar      1 1      0.0000
     3 C3       1.2122   0.0283  -0.8990   C.ar      1 1      0.0000
     4 C4       0.7023  -0.3155   0.3480   C.ar      1 1      0.0000
     5 C5       1.6018  -0.6667   1.3485   C.ar      1 1      0.0000
     6 C6       2.9657  -0.6830   1.1197   C.ar      1 1      0.0000
     7 H7       2.9573   0.2874  -2.1281   H         1 1      0.0000
     8 H8       0.5331   0.3117  -1.6957   H         1 1      0.0000
     9 H9       1.2303  -0.9342   2.3321   H         1 1      0.0000
    10 H10      3.6568  -0.9607   1.9086   H         1 1      0.0000
    11 N11      4.8729  -0.3539  -0.3865   N.pl3     1 1      0.0000
    12 O12      5.2557  -0.3231  -1.5457   O.2       1 1      0.0000
    13 O13      5.6287  -0.3963   0.5717   O.2       1 1      0.0000
    14 CL3     -0.8036  -0.3131   0.6149   C.3       1 1      0.0000
    15 CL1     -1.5895  -0.7266  -0.6617   C.3       1 1      0.0000
    16 H16     -1.4155   0.0261  -1.4401   H         1 1      0.0000
    17 H17     -1.1715  -1.6703  -1.0333   H         1 1      0.0000
    18 CL      -3.1081  -0.9099  -0.4931   C.3       1 1      0.0000
    19 CL2     -3.8007  -0.5000  -1.7798   C.3       1 1      0.0000
    20 H20     -4.8381  -0.8279  -1.7808   H         1 1      0.0000
    21 H21     -3.7870   0.5816  -1.8975   H         1 1      0.0000
    22 H22     -3.3050  -0.9410  -2.6421   H         1 1      0.0000
    23 OL2     -1.0574  -1.2165   1.6834   O.3       1 1      0.0000
    24 H24     -2.0220  -1.2046   1.9018   H         1 1      0.0000
    25 N25     -3.4204  -2.2890  -0.2240   N.3       1 1      0.0000
    26 H26     -4.4301  -2.3467  -0.0913   H         1 1      0.0000
    27 C27     -3.0665  -3.2653  -1.2558   C.3       1 1      0.0000
    28 H28     -1.9915  -3.4316  -1.2770   H         1 1      0.0000
    29 H29     -3.5534  -4.2198  -1.0669   H         1 1      0.0000
    30 H30     -3.3750  -2.9163  -2.2390   H         1 1      0.0000
    31 OL1     -3.5775  -0.0445   0.5338   O.3       1 1      0.0000
    32 H32     -4.5573  -0.1437   0.6249   H         1 1      0.0000
    33 CL4     -1.1350   1.1277   1.0523   C.2       1 1      0.0000
    34 C34     -1.1433   3.4060   0.3921   C.3       1 1      0.0000
    35 H35     -2.2045   3.5417   0.6343   H         1 1      0.0000
    36 H36     -0.5583   3.7295   1.2619   H         1 1      0.0000
    37 OL3     -1.5785   1.4078   2.1318   O.2       1 1      0.0000
    38 OL4     -0.8693   2.0054   0.0926   O.3       1 1      0.0000
    39 C39     -0.7823   4.2115  -0.7959   C.3       1 1      0.0000
    40 H40     -1.3655   3.9047  -1.6616   H         1 1      0.0000
    41 H41     -0.9709   5.2681  -0.6173   H         1 1      0.0000
    42 H42      0.2718   4.0915  -1.0375   H         1 1      0.0000
@<TRIPOS>BOND
     1     1     2   ar
     2     1     6   ar
     3     1    11    1
     4     2     3   ar
     5     2     7    1
     6     3     4   ar
     7     3     8    1
     8     4     5   ar
     9     4    14    1
    10     5     6   ar
    11     5     9    1
    12     6    10    1
    13    11    12    2
    14    11    13    2
    15    14    15    1
    16    14    23    1
    17    14    33    1
    18    15    16    1
    19    15    17    1
    20    15    18    1
    21    18    19    1
    22    18    25    1
    23    18    31    1
    24    19    20    1
    25    19    21    1
    26    19    22    1
    27    23    24    1
    28    25    26    1
    29    25    27    1
    30    27    28    1
    31    27    29    1
    32    27    30    1
    33    31    32    1
    34    33    37    2
    35    33    38    1
    36    34    35    1
    37    34    36    1
    38    34    38    1
    39    34    39    1
    40    39    40    1
    41    39    41    1
    42    39    42    1
@<TRIPOS>SUBSTRUCTURE
     1 1           1 GROUP             0 ****  ****    0  
@<TRIPOS>MOLECULE
Molecule Name_00254
    42    42     1     0     0
SMALL
NO_CHARGES
****
Generated from the CSD

@<TRIPOS>ATOM
     1 C1       3.4459  -0.3265  -0.1046   C.ar      1 1      0.0000
     2 C2       2.5832  -0.0449  -1.1405   C.ar      1 1      0.0000
     3 C3       1.2235  -0.0440  -0.8871   C.ar      1 1      0.0000
     4 C4       0.7215  -0.3219   0.3795   C.ar      1 1      0.0000
     5 C5       1.6285  -0.5973   1.3968   C.ar      1 1      0.0000
     6 C6       2.9921  -0.6035   1.1658   C.ar      1 1      0.0000
     7 H7       2.9620   0.1717  -2.1339   H         1 1      0.0000
     8 H8       0.5383   0.1796  -1.6975   H         1 1      0.0000
     9 H9       1.2633  -0.8121   2.3955   H         1 1      0.0000
    10 H10      3.6892  -0.8217   1.9681   H         1 1      0.0000
    11 N11      4.8910  -0.3315  -0.3620   N.pl3     1 1      0.0000
    12 O12      5.2960   0.1785  -1.3951   O.2       1 1      0.0000
    13 O13      5.6244  -0.8453   0.4682   O.2       1 1      0.0000
    14 CL3     -0.7838  -0.3297   0.6495   C.3       1 1      0.0000
    15 CL1     -1.5628  -0.8521  -0.5909   C.3       1 1      0.0000
    16 H16     -1.3185  -0.2178  -1.4515   H         1 1      0.0000
    17 H17     -1.2001  -1.8603  -0.8263   H         1 1      0.0000
    18 CL      -3.0942  -0.9152  -0.4522   C.3       1 1      0.0000
    19 CL2     -3.6800   0.4326  -0.8312   C.3       1 1      0.0000
    20 H20     -4.7457   0.3469  -1.0329   H         1 1      0.0000
    21 H21     -3.5442   1.1522  -0.0266   H         1 1      0.0000
    22 H22     -3.1969   0.8261  -1.7231   H         1 1      0.0000
    23 OL2     -1.0181  -1.1565   1.7826   O.3       1 1      0.0000
    24 H24     -1.9824  -1.1477   2.0021   H         1 1      0.0000
    25 N25     -3.6372  -1.9151  -1.3339   N.3       1 1      0.0000
    26 H26     -3.3640  -1.6577  -2.2823   H         1 1      0.0000
    27 C27     -3.2022  -3.2967  -1.1219   C.3       1 1      0.0000
    28 H28     -3.0953  -3.5088  -0.0601   H         1 1      0.0000
    29 H29     -3.9249  -3.9965  -1.5362   H         1 1      0.0000
    30 H30     -2.2425  -3.4768  -1.6018   H         1 1      0.0000
    31 OL1     -3.4361  -1.1576   0.9072   O.3       1 1      0.0000
    32 H32     -4.4205  -1.1728   1.0008   H         1 1      0.0000
    33 CL4     -1.1435   1.1326   0.9801   C.2       1 1      0.0000
    34 C34     -1.1983   3.3551   0.1532   C.3       1 1      0.0000
    35 H35     -2.2618   3.4872   0.3877   H         1 1      0.0000
    36 H36     -0.6189   3.7538   0.9952   H         1 1      0.0000
    37 OL3     -1.5912   1.4828   2.0372   O.2       1 1      0.0000
    38 OL4     -0.8966   1.9420  -0.0426   O.3       1 1      0.0000
    39 C39     -0.8551   4.0776  -1.0920   C.3       1 1      0.0000
    40 H40     -1.4331   3.6960  -1.9311   H         1 1      0.0000
    41 H41     -1.0647   5.1405  -0.9916   H         1 1      0.0000
    42 H42      0.2008   3.9611  -1.3270   H         1 1      0.0000
@<TRIPOS>BOND
     1     1     2   ar
     2     1     6   ar
     3     1    11    1
     4     2     3   ar
     5     2     7    1
     6     3     4   ar
     7     3     8    1
     8     4     5   ar
     9     4    14    1
    10     5     6   ar
    11     5     9    1
    12     6    10    1
    13    11    12    2
    14    11    13    2
    15    14    15    1
    16    14    23    1
    17    14    33    1
    18    15    16    1
    19    15    17    1
    20    15    18    1
    21    18    19    1
    22    18    25    1
    23    18    31    1
    24    19    20    1
    25    19    21    1
    26    19    22    1
    27    23    24    1
    28    25    26    1
    29    25    27    1
    30    27    28    1
    31    27    29    1
    32    27    30    1
    33    31    32    1
    34    33    37    2
    35    33    38    1
    36    34    35    1
    37    34    36    1
    38    34    38    1
    39    34    39    1
    40    39    40    1
    41    39    41    1
    42    39    42    1
@<TRIPOS>SUBSTRUCTURE
     1 1           1 GROUP             0 ****  ****    0  
@<TRIPOS>MOLECULE
Molecule Name_00255
    42    42     1     0     0
SMALL
NO_CHARGES
****
Generated from the CSD

@<TRIPOS>ATOM
     1 C1       3.5835  -0.4234  -0.1712   C.ar      1 1      0.0000
     2 C2       3.0365  -1.2974   0.7418   C.ar      1 1      0.0000
     3 C3       1.6674  -1.2793   0.9364   C.ar      1 1      0.0000
     4 C4       0.8467  -0.4024   0.2358   C.ar      1 1      0.0000
     5 C5       1.4407   0.4602  -0.6788   C.ar      1 1      0.0000
     6 C6       2.8076   0.4591  -0.8894   C.ar      1 1      0.0000
     7 H7       3.6661  -1.9854   1.2964   H         1 1      0.0000
     8 H8       1.2294  -1.9666   1.6519   H         1 1      0.0000
     9 H9       0.8223   1.1508  -1.2425   H         1 1      0.0000
    10 H10      3.2588   1.1386  -1.6049   H         1 1      0.0000
    11 N11      5.0357  -0.4328  -0.3852   N.pl3     1 1      0.0000
    12 O12      5.5054   0.3481  -1.1981   O.2       1 1      0.0000
    13 O13      5.7099  -1.2212   0.2590   O.2       1 1      0.0000
    14 CL3     -0.6653  -0.3807   0.4643   C.3       1 1      0.0000
    15 CL1     -1.4256  -0.7190  -0.8495   C.3       1 1      0.0000
    16 H16     -1.4666   0.1821  -1.4732   H         1 1      0.0000
    17 H17     -0.8408  -1.4630  -1.4043   H         1 1      0.0000
    18 CL      -2.8561  -1.2617  -0.6842   C.3       1 1      0.0000
    19 CL2     -2.7965  -2.6027   0.0241   C.3       1 1      0.0000
    20 H20     -3.5037  -3.3029  -0.4156   H         1 1      0.0000
    21 H21     -1.8007  -3.0347  -0.0511   H         1 1      0.0000
    22 H22     -3.0396  -2.4929   1.0789   H         1 1      0.0000
    23 OL2     -0.9649  -1.3264   1.4833   O.3       1 1      0.0000
    24 H24     -1.2704  -0.8500   2.2943   H         1 1      0.0000
    25 N25     -3.6469  -0.3587   0.1102   N.3       1 1      0.0000
    26 H26     -3.0226   0.0563   0.8019   H         1 1      0.0000
    27 C27     -4.3039   0.7449  -0.5921   C.3       1 1      0.0000
    28 H28     -5.0477   0.3687  -1.2914   H         1 1      0.0000
    29 H29     -4.8045   1.4064   0.1119   H         1 1      0.0000
    30 H30     -3.5788   1.3320  -1.1518   H         1 1      0.0000
    31 OL1     -3.4275  -1.4865  -1.9675   O.3       1 1      0.0000
    32 H32     -4.3374  -1.8593  -1.8614   H         1 1      0.0000
    33 CL4     -0.9797   1.0453   0.9593   C.2       1 1      0.0000
    34 C34     -1.3044   3.3021   0.3052   C.3       1 1      0.0000
    35 H35     -0.8374   3.5584   1.2642   H         1 1      0.0000
    36 H36     -0.8953   3.9775  -0.4563   H         1 1      0.0000
    37 OL3     -1.1672   1.3210   2.1122   O.2       1 1      0.0000
    38 OL4     -1.0150   1.9158  -0.0423   O.3       1 1      0.0000
    39 C39     -2.7734   3.4592   0.3929   C.3       1 1      0.0000
    40 H40     -3.2006   2.7214   1.0688   H         1 1      0.0000
    41 H41     -3.0341   4.4487   0.7627   H         1 1      0.0000
    42 H42     -3.2341   3.3304  -0.5843   H         1 1      0.0000
@<TRIPOS>BOND
     1     1     2   ar
     2     1     6   ar
     3     1    11    1
     4     2     3   ar
     5     2     7    1
     6     3     4   ar
     7     3     8    1
     8     4     5   ar
     9     4    14    1
    10     5     6   ar
    11     5     9    1
    12     6    10    1
    13    11    12    2
    14    11    13    2
    15    14    15    1
    16    14    23    1
    17    14    33    1
    18    15    16    1
    19    15    17    1
    20    15    18    1
    21    18    19    1
    22    18    25    1
    23    18    31    1
    24    19    20    1
    25    19    21    1
    26    19    22    1
    27    23    24    1
    28    25    26    1
    29    25    27    1
    30    27    28    1
    31    27    29    1
    32    27    30    1
    33    31    32    1
    34    33    37    2
    35    33    38    1
    36    34    35    1
    37    34    36    1
    38    34    38    1
    39    34    39    1
    40    39    40    1
    41    39    41    1
    42    39    42    1
@<TRIPOS>SUBSTRUCTURE
     1 1           1 GROUP             0 ****  ****    0  
@<TRIPOS>MOLECULE
Molecule Name_00256
    42    42     1     0     0
SMALL
NO_CHARGES
****
Generated from the CSD

@<TRIPOS>ATOM
     1 C1       3.4767  -0.2711  -0.1975   C.ar      1 1      0.0000
     2 C2       2.9830  -1.1442   0.7462   C.ar      1 1      0.0000
     3 C3       1.6160  -1.1936   0.9504   C.ar      1 1      0.0000
     4 C4       0.7452  -0.3845   0.2291   C.ar      1 1      0.0000
     5 C5       1.2864   0.4797  -0.7162   C.ar      1 1      0.0000
     6 C6       2.6502   0.5455  -0.9368   C.ar      1 1      0.0000
     7 H7       3.6520  -1.7797   1.3171   H         1 1      0.0000
     8 H8       1.2199  -1.8808   1.6901   H         1 1      0.0000
     9 H9       0.6284   1.1181  -1.2964   H         1 1      0.0000
    10 H10      3.0599   1.2255  -1.6764   H         1 1      0.0000
    11 N11      4.9260  -0.2092  -0.4220   N.pl3     1 1      0.0000
    12 O12      5.3482   0.5700  -1.2621   O.2       1 1      0.0000
    13 O13      5.6456  -0.9396   0.2413   O.2       1 1      0.0000
    14 CL3     -0.7645  -0.4369   0.4681   C.3       1 1      0.0000
    15 CL1     -1.5129  -0.8566  -0.8288   C.3       1 1      0.0000
    16 H16     -1.6061   0.0211  -1.4798   H         1 1      0.0000
    17 H17     -0.8921  -1.5850  -1.3648   H         1 1      0.0000
    18 CL      -2.9111  -1.4700  -0.6362   C.3       1 1      0.0000
    19 CL2     -2.7751  -2.7830   0.1127   C.3       1 1      0.0000
    20 H20     -3.4464  -3.5335  -0.2996   H         1 1      0.0000
    21 H21     -1.7581  -3.1632   0.0430   H         1 1      0.0000
    22 H22     -3.0172  -2.6535   1.1655   H         1 1      0.0000
    23 OL2     -1.0067  -1.3650   1.5181   O.3       1 1      0.0000
    24 H24     -1.5440  -0.9290   2.2247   H         1 1      0.0000
    25 N25     -3.7448  -0.5864   0.1359   N.3       1 1      0.0000
    26 H26     -3.1398  -0.1171   0.8098   H         1 1      0.0000
    27 C27     -4.4645   0.4579  -0.5951   C.3       1 1      0.0000
    28 H28     -5.1323   0.0208  -1.3345   H         1 1      0.0000
    29 H29     -5.0608   1.0633   0.0843   H         1 1      0.0000
    30 H30     -3.7691   1.1152  -1.1131   H         1 1      0.0000
    31 OL1     -3.4770  -1.7651  -1.9076   O.3       1 1      0.0000
    32 H32     -4.3648  -2.1827  -1.7832   H         1 1      0.0000
    33 CL4     -1.1524   0.9849   0.9211   C.2       1 1      0.0000
    34 C34     -1.6020   3.1994   0.1999   C.3       1 1      0.0000
    35 H35     -2.0635   3.6742  -0.6747   H         1 1      0.0000
    36 H36     -2.3315   3.2274   1.0187   H         1 1      0.0000
    37 OL3     -1.3479   1.2860   2.0663   O.2       1 1      0.0000
    38 OL4     -1.2404   1.8204  -0.1066   O.3       1 1      0.0000
    39 C39     -0.3710   3.9247   0.5861   C.3       1 1      0.0000
    40 H40      0.3547   3.9115  -0.2243   H         1 1      0.0000
    41 H41     -0.5937   4.9626   0.8247   H         1 1      0.0000
    42 H42      0.0882   3.4671   1.4599   H         1 1      0.0000
@<TRIPOS>BOND
     1     1     2   ar
     2     1     6   ar
     3     1    11    1
     4     2     3   ar
     5     2     7    1
     6     3     4   ar
     7     3     8    1
     8     4     5   ar
     9     4    14    1
    10     5     6   ar
    11     5     9    1
    12     6    10    1
    13    11    12    2
    14    11    13    2
    15    14    15    1
    16    14    23    1
    17    14    33    1
    18    15    16    1
    19    15    17    1
    20    15    18    1
    21    18    19    1
    22    18    25    1
    23    18    31    1
    24    19    20    1
    25    19    21    1
    26    19    22    1
    27    23    24    1
    28    25    26    1
    29    25    27    1
    30    27    28    1
    31    27    29    1
    32    27    30    1
    33    31    32    1
    34    33    37    2
    35    33    38    1
    36    34    35    1
    37    34    36    1
    38    34    38    1
    39    34    39    1
    40    39    40    1
    41    39    41    1
    42    39    42    1
@<TRIPOS>SUBSTRUCTURE
     1 1           1 GROUP             0 ****  ****    0  
@<TRIPOS>MOLECULE
Molecule Name_00257
    42    42     1     0     0
SMALL
NO_CHARGES
****
Generated from the CSD

@<TRIPOS>ATOM
     1 C1       3.0197  -0.5897  -0.2061   C.ar      1 1      0.0000
     2 C2       2.2215  -0.4966  -1.3245   C.ar      1 1      0.0000
     3 C3       0.8965  -0.1344  -1.1631   C.ar      1 1      0.0000
     4 C4       0.3651   0.1309   0.0941   C.ar      1 1      0.0000
     5 C5       1.2075   0.0282   1.1955   C.ar      1 1      0.0000
     6 C6       2.5356  -0.3322   1.0572   C.ar      1 1      0.0000
     7 H7       2.6234  -0.7027  -2.3110   H         1 1      0.0000
     8 H8       0.2627  -0.0564  -2.0397   H         1 1      0.0000
     9 H9       0.8193   0.2350   2.1872   H         1 1      0.0000
    10 H10      3.1821  -0.4103   1.9251   H         1 1      0.0000
    11 N11      4.4273  -0.9744  -0.3652   N.pl3     1 1      0.0000
    12 O12      5.1220  -1.0526   0.6360   O.2       1 1      0.0000
    13 O13      4.8414  -1.1993  -1.4918   O.2       1 1      0.0000
    14 CL3     -1.1039   0.5202   0.2659   C.3       1 1      0.0000
    15 CL1     -2.0031  -0.2731  -0.7243   C.3       1 1      0.0000
    16 H16     -2.9655   0.2447  -0.8163   H         1 1      0.0000
    17 H17     -1.5321  -0.2464  -1.7147   H         1 1      0.0000
    18 CL      -2.2746  -1.7442  -0.3636   C.3       1 1      0.0000
    19 CL2     -3.4880  -1.8137   0.5454   C.3       1 1      0.0000
    20 H20     -3.7439  -2.8473   0.7688   H         1 1      0.0000
    21 H21     -3.2954  -1.3014   1.4857   H         1 1      0.0000
    22 H22     -4.3499  -1.3453   0.0746   H         1 1      0.0000
    23 OL2     -1.4706   0.2511   1.6133   O.3       1 1      0.0000
    24 H24     -2.4076   0.5308   1.7611   H         1 1      0.0000
    25 N25     -2.5475  -2.5102  -1.5514   N.3       1 1      0.0000
    26 H26     -1.7297  -2.4270  -2.1553   H         1 1      0.0000
    27 C27     -2.8082  -3.9400  -1.3762   C.3       1 1      0.0000
    28 H28     -3.6945  -4.0984  -0.7654   H         1 1      0.0000
    29 H29     -2.9683  -4.4234  -2.3377   H         1 1      0.0000
    30 H30     -1.9678  -4.4282  -0.8872   H         1 1      0.0000
    31 OL1     -1.1695  -2.2637   0.3662   O.3       1 1      0.0000
    32 H32     -1.3785  -3.1812   0.6704   H         1 1      0.0000
    33 CL4     -1.1545   2.0378  -0.0014   C.2       1 1      0.0000
    34 C34     -1.0683   4.1901   0.9920   C.3       1 1      0.0000
    35 H35     -0.2563   4.5325   0.3387   H         1 1      0.0000
    36 H36     -2.0163   4.5093   0.5416   H         1 1      0.0000
    37 OL3     -1.2868   2.5148  -1.0948   O.2       1 1      0.0000
    38 OL4     -1.0344   2.7379   1.1200   O.3       1 1      0.0000
    39 C39     -0.9202   4.7764   2.3428   C.3       1 1      0.0000
    40 H40      0.0227   4.4737   2.7934   H         1 1      0.0000
    41 H41     -0.9400   5.8632   2.2959   H         1 1      0.0000
    42 H42     -1.7277   4.4506   2.9953   H         1 1      0.0000
@<TRIPOS>BOND
     1     1     2   ar
     2     1     6   ar
     3     1    11    1
     4     2     3   ar
     5     2     7    1
     6     3     4   ar
     7     3     8    1
     8     4     5   ar
     9     4    14    1
    10     5     6   ar
    11     5     9    1
    12     6    10    1
    13    11    12    2
    14    11    13    2
    15    14    15    1
    16    14    23    1
    17    14    33    1
    18    15    16    1
    19    15    17    1
    20    15    18    1
    21    18    19    1
    22    18    25    1
    23    18    31    1
    24    19    20    1
    25    19    21    1
    26    19    22    1
    27    23    24    1
    28    25    26    1
    29    25    27    1
    30    27    28    1
    31    27    29    1
    32    27    30    1
    33    31    32    1
    34    33    37    2
    35    33    38    1
    36    34    35    1
    37    34    36    1
    38    34    38    1
    39    34    39    1
    40    39    40    1
    41    39    41    1
    42    39    42    1
@<TRIPOS>SUBSTRUCTURE
     1 1           1 GROUP             0 ****  ****    0  
@<TRIPOS>MOLECULE
Molecule Name_00258
    42    42     1     0     0
SMALL
NO_CHARGES
****
Generated from the CSD

@<TRIPOS>ATOM
     1 C1       3.0823  -0.5625  -0.1900   C.ar      1 1      0.0000
     2 C2       2.2598  -0.5616  -1.2945   C.ar      1 1      0.0000
     3 C3       0.9242  -0.2451  -1.1242   C.ar      1 1      0.0000
     4 C4       0.4064   0.0655   0.1283   C.ar      1 1      0.0000
     5 C5       1.2733   0.0560   1.2154   C.ar      1 1      0.0000
     6 C6       2.6123  -0.2574   1.0680   C.ar      1 1      0.0000
     7 H7       2.6510  -0.8039  -2.2771   H         1 1      0.0000
     8 H8       0.2711  -0.2397  -1.9900   H         1 1      0.0000
     9 H9       0.8958   0.2998   2.2029   H         1 1      0.0000
    10 H10      3.2779  -0.2628   1.9249   H         1 1      0.0000
    11 N11      4.5014  -0.8980  -0.3585   N.pl3     1 1      0.0000
    12 O12      5.2178  -0.8944   0.6304   O.2       1 1      0.0000
    13 O13      4.9029  -1.1660  -1.4802   O.2       1 1      0.0000
    14 CL3     -1.0739   0.4039   0.3105   C.3       1 1      0.0000
    15 CL1     -1.9582  -0.4773  -0.6168   C.3       1 1      0.0000
    16 H16     -2.9424  -0.0039  -0.7165   H         1 1      0.0000
    17 H17     -1.5072  -0.4860  -1.6167   H         1 1      0.0000
    18 CL      -2.1629  -1.9362  -0.1719   C.3       1 1      0.0000
    19 CL2     -3.3501  -2.0026   0.7713   C.3       1 1      0.0000
    20 H20     -3.6071  -3.0358   0.9956   H         1 1      0.0000
    21 H21     -3.1266  -1.4977   1.7088   H         1 1      0.0000
    22 H22     -4.2217  -1.5250   0.3285   H         1 1      0.0000
    23 OL2     -1.4031   0.1932   1.6779   O.3       1 1      0.0000
    24 H24     -2.3480   0.4423   1.8306   H         1 1      0.0000
    25 N25     -2.4344  -2.7746  -1.3100   N.3       1 1      0.0000
    26 H26     -2.5473  -3.7261  -0.9603   H         1 1      0.0000
    27 C27     -3.6284  -2.4621  -2.0973   C.3       1 1      0.0000
    28 H28     -3.5706  -1.4538  -2.5019   H         1 1      0.0000
    29 H29     -3.7343  -3.1555  -2.9291   H         1 1      0.0000
    30 H30     -4.5240  -2.5301  -1.4833   H         1 1      0.0000
    31 OL1     -1.0207  -2.3734   0.5548   O.3       1 1      0.0000
    32 H32     -1.1629  -3.3025   0.8626   H         1 1      0.0000
    33 CL4     -1.1925   1.9016  -0.0358   C.2       1 1      0.0000
    34 C34     -1.1766   4.1060   0.8399   C.3       1 1      0.0000
    35 H35     -0.3922   4.4452   0.1522   H         1 1      0.0000
    36 H36     -2.1454   4.3620   0.3936   H         1 1      0.0000
    37 OL3     -1.3654   2.3132  -1.1498   O.2       1 1      0.0000
    38 OL4     -1.0800   2.6654   1.0441   O.3       1 1      0.0000
    39 C39     -1.0271   4.7697   2.1543   C.3       1 1      0.0000
    40 H40     -0.0639   4.5301   2.6001   H         1 1      0.0000
    41 H41     -1.0928   5.8507   2.0502   H         1 1      0.0000
    42 H42     -1.8076   4.4473   2.8402   H         1 1      0.0000
@<TRIPOS>BOND
     1     1     2   ar
     2     1     6   ar
     3     1    11    1
     4     2     3   ar
     5     2     7    1
     6     3     4   ar
     7     3     8    1
     8     4     5   ar
     9     4    14    1
    10     5     6   ar
    11     5     9    1
    12     6    10    1
    13    11    12    2
    14    11    13    2
    15    14    15    1
    16    14    23    1
    17    14    33    1
    18    15    16    1
    19    15    17    1
    20    15    18    1
    21    18    19    1
    22    18    25    1
    23    18    31    1
    24    19    20    1
    25    19    21    1
    26    19    22    1
    27    23    24    1
    28    25    26    1
    29    25    27    1
    30    27    28    1
    31    27    29    1
    32    27    30    1
    33    31    32    1
    34    33    37    2
    35    33    38    1
    36    34    35    1
    37    34    36    1
    38    34    38    1
    39    34    39    1
    40    39    40    1
    41    39    41    1
    42    39    42    1
@<TRIPOS>SUBSTRUCTURE
     1 1           1 GROUP             0 ****  ****    0  
@<TRIPOS>MOLECULE
Molecule Name_00259
    42    42     1     0     0
SMALL
NO_CHARGES
****
Generated from the CSD

@<TRIPOS>ATOM
     1 C1       2.9574  -0.6574  -0.1864   C.ar      1 1      0.0000
     2 C2       2.1306  -0.6335  -1.2876   C.ar      1 1      0.0000
     3 C3       0.8091  -0.2639  -1.1144   C.ar      1 1      0.0000
     4 C4       0.3092   0.0765   0.1377   C.ar      1 1      0.0000
     5 C5       1.1799   0.0421   1.2212   C.ar      1 1      0.0000
     6 C6       2.5050  -0.3243   1.0709   C.ar      1 1      0.0000
     7 H7       2.5077  -0.8986  -2.2697   H         1 1      0.0000
     8 H8       0.1528  -0.2402  -1.9775   H         1 1      0.0000
     9 H9       0.8165   0.3082   2.2082   H         1 1      0.0000
    10 H10      3.1737  -0.3487   1.9251   H         1 1      0.0000
    11 N11      4.3616  -1.0492  -0.3581   N.pl3     1 1      0.0000
    12 O12      5.0819  -1.0654   0.6279   O.2       1 1      0.0000
    13 O13      4.7474  -1.3415  -1.4792   O.2       1 1      0.0000
    14 CL3     -1.1560   0.4736   0.3232   C.3       1 1      0.0000
    15 CL1     -2.0779  -0.3801  -0.5931   C.3       1 1      0.0000
    16 H16     -3.0433   0.1305  -0.6932   H         1 1      0.0000
    17 H17     -1.6318  -0.4150  -1.5946   H         1 1      0.0000
    18 CL      -2.3377  -1.8261  -0.1349   C.3       1 1      0.0000
    19 CL2     -3.5202  -1.8374   0.8166   C.3       1 1      0.0000
    20 H20     -3.8155  -2.8576   1.0525   H         1 1      0.0000
    21 H21     -3.2709  -1.3328   1.7477   H         1 1      0.0000
    22 H22     -4.3755  -1.3305   0.3748   H         1 1      0.0000
    23 OL2     -1.4871   0.2869   1.6936   O.3       1 1      0.0000
    24 H24     -2.4209   0.5738   1.8481   H         1 1      0.0000
    25 N25     -2.6503  -2.6620  -1.2642   N.3       1 1      0.0000
    26 H26     -3.4761  -2.2639  -1.7115   H         1 1      0.0000
    27 C27     -1.6233  -2.7945  -2.2990   C.3       1 1      0.0000
    28 H28     -0.6355  -2.8866  -1.8524   H         1 1      0.0000
    29 H29     -1.8028  -3.6768  -2.9097   H         1 1      0.0000
    30 H30     -1.6200  -1.9247  -2.9526   H         1 1      0.0000
    31 OL1     -1.2090  -2.3028   0.5879   O.3       1 1      0.0000
    32 H32     -1.3860  -3.2230   0.9043   H         1 1      0.0000
    33 CL4     -1.2180   1.9719  -0.0351   C.2       1 1      0.0000
    34 C34     -1.1127   4.1810   0.8222   C.3       1 1      0.0000
    35 H35     -0.3188   4.4840   0.1284   H         1 1      0.0000
    36 H36     -2.0729   4.4708   0.3778   H         1 1      0.0000
    37 OL3     -1.3798   2.3808  -1.1517   O.2       1 1      0.0000
    38 OL4     -1.0712   2.7395   1.0380   O.3       1 1      0.0000
    39 C39     -0.9317   4.8492   2.1304   C.3       1 1      0.0000
    40 H40      0.0234   4.5760   2.5742   H         1 1      0.0000
    41 H41     -0.9559   5.9310   2.0176   H         1 1      0.0000
    42 H42     -1.7211   4.5628   2.8222   H         1 1      0.0000
@<TRIPOS>BOND
     1     1     2   ar
     2     1     6   ar
     3     1    11    1
     4     2     3   ar
     5     2     7    1
     6     3     4   ar
     7     3     8    1
     8     4     5   ar
     9     4    14    1
    10     5     6   ar
    11     5     9    1
    12     6    10    1
    13    11    12    2
    14    11    13    2
    15    14    15    1
    16    14    23    1
    17    14    33    1
    18    15    16    1
    19    15    17    1
    20    15    18    1
    21    18    19    1
    22    18    25    1
    23    18    31    1
    24    19    20    1
    25    19    21    1
    26    19    22    1
    27    23    24    1
    28    25    26    1
    29    25    27    1
    30    27    28    1
    31    27    29    1
    32    27    30    1
    33    31    32    1
    34    33    37    2
    35    33    38    1
    36    34    35    1
    37    34    36    1
    38    34    38    1
    39    34    39    1
    40    39    40    1
    41    39    41    1
    42    39    42    1
@<TRIPOS>SUBSTRUCTURE
     1 1           1 GROUP             0 ****  ****    0  
@<TRIPOS>MOLECULE
Molecule Name_00260
    42    42     1     0     0
SMALL
NO_CHARGES
****
Generated from the CSD

@<TRIPOS>ATOM
     1 C1       3.4998  -0.3747  -0.1033   C.ar      1 1      0.0000
     2 C2       3.0667  -1.1444   0.9534   C.ar      1 1      0.0000
     3 C3       1.7095  -1.2093   1.2117   C.ar      1 1      0.0000
     4 C4       0.7890  -0.5168   0.4330   C.ar      1 1      0.0000
     5 C5       1.2699   0.2453  -0.6259   C.ar      1 1      0.0000
     6 C6       2.6227   0.3243  -0.9024   C.ar      1 1      0.0000
     7 H7       3.7748  -1.6882   1.5698   H         1 1      0.0000
     8 H8       1.3610  -1.8157   2.0407   H         1 1      0.0000
     9 H9       0.5723   0.7912  -1.2523   H         1 1      0.0000
    10 H10      2.9851   0.9240  -1.7308   H         1 1      0.0000
    11 N11      4.9381  -0.2975  -0.3863   N.pl3     1 1      0.0000
    12 O12      5.3063   0.3891  -1.3266   O.2       1 1      0.0000
    13 O13      5.7029  -0.9232   0.3312   O.2       1 1      0.0000
    14 CL3     -0.7094  -0.5847   0.7315   C.3       1 1      0.0000
    15 CL1     -1.4902  -1.1390  -0.4938   C.3       1 1      0.0000
    16 H16     -1.2022  -0.5646  -1.3825   H         1 1      0.0000
    17 H17     -1.1703  -2.1739  -0.6670   H         1 1      0.0000
    18 CL      -3.0250  -1.1253  -0.3821   C.3       1 1      0.0000
    19 CL2     -3.4168  -1.3647   1.0645   C.3       1 1      0.0000
    20 H20     -4.4976  -1.4415   1.1637   H         1 1      0.0000
    21 H21     -2.9760  -2.2875   1.4358   H         1 1      0.0000
    22 H22     -3.0756  -0.5476   1.6967   H         1 1      0.0000
    23 OL2     -0.8889  -1.4192   1.8690   O.3       1 1      0.0000
    24 H24     -1.3268  -0.9026   2.5898   H         1 1      0.0000
    25 N25     -3.5468   0.1518  -0.7928   N.3       1 1      0.0000
    26 H26     -3.1967   0.8447  -0.1312   H         1 1      0.0000
    27 C27     -3.1873   0.6180  -2.1331   C.3       1 1      0.0000
    28 H28     -3.2572  -0.1928  -2.8552   H         1 1      0.0000
    29 H29     -3.8523   1.4167  -2.4549   H         1 1      0.0000
    30 H30     -2.1682   0.9987  -2.1486   H         1 1      0.0000
    31 OL1     -3.5642  -2.1955  -1.1488   O.3       1 1      0.0000
    32 H32     -4.5489  -2.2023  -1.0566   H         1 1      0.0000
    33 CL4     -1.1211   0.8623   1.0687   C.2       1 1      0.0000
    34 C34     -1.5556   3.0171   0.1774   C.3       1 1      0.0000
    35 H35     -2.5509   3.0788   0.6345   H         1 1      0.0000
    36 H36     -0.8470   3.5126   0.8525   H         1 1      0.0000
    37 OL3     -1.3601   1.2417   2.1820   O.2       1 1      0.0000
    38 OL4     -1.1757   1.6229  -0.0179   O.3       1 1      0.0000
    39 C39     -1.5566   3.6849  -1.1434   C.3       1 1      0.0000
    40 H40     -2.2648   3.2066  -1.8168   H         1 1      0.0000
    41 H41     -1.8356   4.7320  -1.0460   H         1 1      0.0000
    42 H42     -0.5701   3.6380  -1.6000   H         1 1      0.0000
@<TRIPOS>BOND
     1     1     2   ar
     2     1     6   ar
     3     1    11    1
     4     2     3   ar
     5     2     7    1
     6     3     4   ar
     7     3     8    1
     8     4     5   ar
     9     4    14    1
    10     5     6   ar
    11     5     9    1
    12     6    10    1
    13    11    12    2
    14    11    13    2
    15    14    15    1
    16    14    23    1
    17    14    33    1
    18    15    16    1
    19    15    17    1
    20    15    18    1
    21    18    19    1
    22    18    25    1
    23    18    31    1
    24    19    20    1
    25    19    21    1
    26    19    22    1
    27    23    24    1
    28    25    26    1
    29    25    27    1
    30    27    28    1
    31    27    29    1
    32    27    30    1
    33    31    32    1
    34    33    37    2
    35    33    38    1
    36    34    35    1
    37    34    36    1
    38    34    38    1
    39    34    39    1
    40    39    40    1
    41    39    41    1
    42    39    42    1
@<TRIPOS>SUBSTRUCTURE
     1 1           1 GROUP             0 ****  ****    0  
@<TRIPOS>MOLECULE
Molecule Name_00261
    42    42     1     0     0
SMALL
NO_CHARGES
****
Generated from the CSD

@<TRIPOS>ATOM
     1 C1       3.0732  -0.6428  -0.3344   C.ar      1 1      0.0000
     2 C2       2.4429   0.4045  -0.9690   C.ar      1 1      0.0000
     3 C3       1.1407   0.7057  -0.6135   C.ar      1 1      0.0000
     4 C4       0.4670  -0.0242   0.3594   C.ar      1 1      0.0000
     5 C5       1.1427  -1.0709   0.9770   C.ar      1 1      0.0000
     6 C6       2.4449  -1.3895   0.6373   C.ar      1 1      0.0000
     7 H7       2.9569   0.9808  -1.7312   H         1 1      0.0000
     8 H8       0.6390   1.5309  -1.1072   H         1 1      0.0000
     9 H9       0.6416  -1.6529   1.7433   H         1 1      0.0000
    10 H10      2.9603  -2.2099   1.1257   H         1 1      0.0000
    11 N11      4.4550  -0.9724  -0.7043   N.pl3     1 1      0.0000
    12 O12      4.9044  -0.5030  -1.7382   O.2       1 1      0.0000
    13 O13      5.0940  -1.7016   0.0381   O.2       1 1      0.0000
    14 CL3     -0.9766   0.3080   0.7395   C.3       1 1      0.0000
    15 CL1     -1.9274   0.0975  -0.4730   C.3       1 1      0.0000
    16 H16     -2.9208   0.4810  -0.2107   H         1 1      0.0000
    17 H17     -1.5616   0.7077  -1.3080   H         1 1      0.0000
    18 CL      -2.0809  -1.3507  -0.9705   C.3       1 1      0.0000
    19 CL2     -0.7533  -1.8218  -1.5354   C.3       1 1      0.0000
    20 H20     -0.9088  -2.5382  -2.3394   H         1 1      0.0000
    21 H21     -0.1844  -0.9841  -1.9332   H         1 1      0.0000
    22 H22     -0.1548  -2.3023  -0.7643   H         1 1      0.0000
    23 OL2     -1.3446  -0.5321   1.8264   O.3       1 1      0.0000
    24 H24     -2.1242  -0.1423   2.2937   H         1 1      0.0000
    25 N25     -2.4499  -2.2186   0.1169   N.3       1 1      0.0000
    26 H26     -2.5495  -1.6332   0.9462   H         1 1      0.0000
    27 C27     -3.6956  -2.9739  -0.0275   C.3       1 1      0.0000
    28 H28     -3.6541  -3.6231  -0.8996   H         1 1      0.0000
    29 H29     -3.8743  -3.5941   0.8484   H         1 1      0.0000
    30 H30     -4.5428  -2.3016  -0.1454   H         1 1      0.0000
    31 OL1     -3.0286  -1.3882  -2.0308   O.3       1 1      0.0000
    32 H32     -3.0280  -2.2884  -2.4405   H         1 1      0.0000
    33 CL4     -0.9464   1.7799   1.1973   C.2       1 1      0.0000
    34 C34     -1.2006   4.0353   0.5079   C.3       1 1      0.0000
    35 H35     -0.4224   4.2602   1.2477   H         1 1      0.0000
    36 H36     -0.9841   4.6221  -0.3933   H         1 1      0.0000
    37 OL3     -0.7180   2.1191   2.3257   O.2       1 1      0.0000
    38 OL4     -1.2021   2.6112   0.1944   O.3       1 1      0.0000
    39 C39     -2.5338   4.3918   1.0428   C.3       1 1      0.0000
    40 H40     -2.7529   3.8221   1.9435   H         1 1      0.0000
    41 H41     -2.5791   5.4500   1.2917   H         1 1      0.0000
    42 H42     -3.3115   4.1820   0.3115   H         1 1      0.0000
@<TRIPOS>BOND
     1     1     2   ar
     2     1     6   ar
     3     1    11    1
     4     2     3   ar
     5     2     7    1
     6     3     4   ar
     7     3     8    1
     8     4     5   ar
     9     4    14    1
    10     5     6   ar
    11     5     9    1
    12     6    10    1
    13    11    12    2
    14    11    13    2
    15    14    15    1
    16    14    23    1
    17    14    33    1
    18    15    16    1
    19    15    17    1
    20    15    18    1
    21    18    19    1
    22    18    25    1
    23    18    31    1
    24    19    20    1
    25    19    21    1
    26    19    22    1
    27    23    24    1
    28    25    26    1
    29    25    27    1
    30    27    28    1
    31    27    29    1
    32    27    30    1
    33    31    32    1
    34    33    37    2
    35    33    38    1
    36    34    35    1
    37    34    36    1
    38    34    38    1
    39    34    39    1
    40    39    40    1
    41    39    41    1
    42    39    42    1
@<TRIPOS>SUBSTRUCTURE
     1 1           1 GROUP             0 ****  ****    0  
@<TRIPOS>MOLECULE
Molecule Name_00262
    42    42     1     0     0
SMALL
NO_CHARGES
****
Generated from the CSD

@<TRIPOS>ATOM
     1 C1       2.9748  -0.4846  -0.3590   C.ar      1 1      0.0000
     2 C2       2.2802   0.5422  -0.9588   C.ar      1 1      0.0000
     3 C3       0.9686   0.7634  -0.5797   C.ar      1 1      0.0000
     4 C4       0.3488  -0.0259   0.3826   C.ar      1 1      0.0000
     5 C5       1.0884  -1.0493   0.9649   C.ar      1 1      0.0000
     6 C6       2.4012  -1.2882   0.6011   C.ar      1 1      0.0000
     7 H7       2.7517   1.1643  -1.7124   H         1 1      0.0000
     8 H8       0.4163   1.5720  -1.0460   H         1 1      0.0000
     9 H9       0.6301  -1.6765   1.7223   H         1 1      0.0000
    10 H10      2.9668  -2.0912   1.0621   H         1 1      0.0000
    11 N11      4.3671  -0.7294  -0.7542   N.pl3     1 1      0.0000
    12 O12      4.7763  -0.2109  -1.7813   O.2       1 1      0.0000
    13 O13      5.0548  -1.4409  -0.0385   O.2       1 1      0.0000
    14 CL3     -1.1053   0.2178   0.7888   C.3       1 1      0.0000
    15 CL1     -2.0599  -0.0140  -0.4168   C.3       1 1      0.0000
    16 H16     -3.0689   0.3084  -0.1325   H         1 1      0.0000
    17 H17     -1.7391   0.6357  -1.2404   H         1 1      0.0000
    18 CL      -2.1418  -1.4556  -0.9490   C.3       1 1      0.0000
    19 CL2     -0.7986  -1.8398  -1.5421   C.3       1 1      0.0000
    20 H20     -0.9262  -2.5434  -2.3621   H         1 1      0.0000
    21 H21     -0.2813  -0.9628  -1.9255   H         1 1      0.0000
    22 H22     -0.1645  -2.3060  -0.7910   H         1 1      0.0000
    23 OL2     -1.4125  -0.6676   1.8584   O.3       1 1      0.0000
    24 H24     -2.2055  -0.3325   2.3451   H         1 1      0.0000
    25 N25     -2.4484  -2.3689   0.1205   N.3       1 1      0.0000
    26 H26     -2.5681  -1.8105   0.9656   H         1 1      0.0000
    27 C27     -3.6533  -3.1871  -0.0277   C.3       1 1      0.0000
    28 H28     -3.5888  -3.8112  -0.9165   H         1 1      0.0000
    29 H29     -3.7863  -3.8375   0.8343   H         1 1      0.0000
    30 H30     -4.5372  -2.5591  -0.1179   H         1 1      0.0000
    31 OL1     -3.1006  -1.5184  -1.9981   O.3       1 1      0.0000
    32 H32     -3.0570  -2.4067  -2.4305   H         1 1      0.0000
    33 CL4     -1.1484   1.6775   1.2835   C.2       1 1      0.0000
    34 C34     -1.5336   3.9320   0.6549   C.3       1 1      0.0000
    35 H35     -2.1924   4.4629  -0.0433   H         1 1      0.0000
    36 H36     -1.9486   4.0533   1.6631   H         1 1      0.0000
    37 OL3     -0.9232   2.0005   2.4172   O.2       1 1      0.0000
    38 OL4     -1.4624   2.5181   0.3053   O.3       1 1      0.0000
    39 C39     -0.1650   4.4922   0.5939   C.3       1 1      0.0000
    40 H40      0.2510   4.3861  -0.4058   H         1 1      0.0000
    41 H41     -0.1696   5.5500   0.8485   H         1 1      0.0000
    42 H42      0.4934   3.9786   1.2913   H         1 1      0.0000
@<TRIPOS>BOND
     1     1     2   ar
     2     1     6   ar
     3     1    11    1
     4     2     3   ar
     5     2     7    1
     6     3     4   ar
     7     3     8    1
     8     4     5   ar
     9     4    14    1
    10     5     6   ar
    11     5     9    1
    12     6    10    1
    13    11    12    2
    14    11    13    2
    15    14    15    1
    16    14    23    1
    17    14    33    1
    18    15    16    1
    19    15    17    1
    20    15    18    1
    21    18    19    1
    22    18    25    1
    23    18    31    1
    24    19    20    1
    25    19    21    1
    26    19    22    1
    27    23    24    1
    28    25    26    1
    29    25    27    1
    30    27    28    1
    31    27    29    1
    32    27    30    1
    33    31    32    1
    34    33    37    2
    35    33    38    1
    36    34    35    1
    37    34    36    1
    38    34    38    1
    39    34    39    1
    40    39    40    1
    41    39    41    1
    42    39    42    1
@<TRIPOS>SUBSTRUCTURE
     1 1           1 GROUP             0 ****  ****    0  
@<TRIPOS>MOLECULE
Molecule Name_00263
    42    42     1     0     0
SMALL
NO_CHARGES
****
Generated from the CSD

@<TRIPOS>ATOM
     1 C1       3.5851  -0.3797  -0.1126   C.ar      1 1      0.0000
     2 C2       2.8911   0.8020  -0.2485   C.ar      1 1      0.0000
     3 C3       1.5201   0.7885  -0.0662   C.ar      1 1      0.0000
     4 C4       0.8413  -0.3843   0.2453   C.ar      1 1      0.0000
     5 C5       1.5820  -1.5537   0.3766   C.ar      1 1      0.0000
     6 C6       2.9535  -1.5632   0.1988   C.ar      1 1      0.0000
     7 H7       3.4086   1.7237  -0.4932   H         1 1      0.0000
     8 H8       0.9674   1.7160  -0.1691   H         1 1      0.0000
     9 H9       1.0773  -2.4816   0.6244   H         1 1      0.0000
    10 H10      3.5195  -2.4830   0.3024   H         1 1      0.0000
    11 N11      5.0403  -0.3777  -0.3049   N.pl3     1 1      0.0000
    12 O12      5.6414  -1.4334  -0.1809   O.2       1 1      0.0000
    13 O13      5.5857   0.6797  -0.5804   O.2       1 1      0.0000
    14 CL3     -0.6762  -0.3934   0.4347   C.3       1 1      0.0000
    15 CL1     -1.3968  -0.6999  -0.9089   C.3       1 1      0.0000
    16 H16     -1.1843   0.1124  -1.6143   H         1 1      0.0000
    17 H17     -0.9602  -1.6121  -1.3339   H         1 1      0.0000
    18 CL      -2.9219  -0.8909  -0.8318   C.3       1 1      0.0000
    19 CL2     -3.4649  -1.0975  -2.2340   C.3       1 1      0.0000
    20 H20     -4.5452  -1.2245  -2.2143   H         1 1      0.0000
    21 H21     -3.2356  -0.2422  -2.8662   H         1 1      0.0000
    22 H22     -3.0277  -1.9831  -2.6903   H         1 1      0.0000
    23 OL2     -0.9864  -1.3767   1.4142   O.3       1 1      0.0000
    24 H24     -1.7431  -1.0619   1.9678   H         1 1      0.0000
    25 N25     -3.2433  -2.0497  -0.0407   N.3       1 1      0.0000
    26 H26     -2.3608  -2.4418   0.2876   H         1 1      0.0000
    27 C27     -4.0843  -1.8381   1.1387   C.3       1 1      0.0000
    28 H28     -5.1097  -1.6204   0.8472   H         1 1      0.0000
    29 H29     -4.0924  -2.7239   1.7705   H         1 1      0.0000
    30 H30     -3.7156  -1.0030   1.7305   H         1 1      0.0000
    31 OL1     -3.5209   0.2921  -0.3166   O.3       1 1      0.0000
    32 H32     -4.4979   0.2577  -0.4661   H         1 1      0.0000
    33 CL4     -1.0263   1.0105   0.9674   C.2       1 1      0.0000
    34 C34     -1.6798   3.2100   0.3662   C.3       1 1      0.0000
    35 H35     -2.5511   3.2051   1.0327   H         1 1      0.0000
    36 H36     -0.8479   3.6770   0.9077   H         1 1      0.0000
    37 OL3     -1.0205   1.2983   2.1325   O.2       1 1      0.0000
    38 OL4     -1.3304   1.8472  -0.0173   O.3       1 1      0.0000
    39 C39     -1.9817   3.9733  -0.8654   C.3       1 1      0.0000
    40 H40     -2.8131   3.5233  -1.4039   H         1 1      0.0000
    41 H41     -2.2488   5.0006  -0.6266   H         1 1      0.0000
    42 H42     -1.1192   3.9926  -1.5283   H         1 1      0.0000
@<TRIPOS>BOND
     1     1     2   ar
     2     1     6   ar
     3     1    11    1
     4     2     3   ar
     5     2     7    1
     6     3     4   ar
     7     3     8    1
     8     4     5   ar
     9     4    14    1
    10     5     6   ar
    11     5     9    1
    12     6    10    1
    13    11    12    2
    14    11    13    2
    15    14    15    1
    16    14    23    1
    17    14    33    1
    18    15    16    1
    19    15    17    1
    20    15    18    1
    21    18    19    1
    22    18    25    1
    23    18    31    1
    24    19    20    1
    25    19    21    1
    26    19    22    1
    27    23    24    1
    28    25    26    1
    29    25    27    1
    30    27    28    1
    31    27    29    1
    32    27    30    1
    33    31    32    1
    34    33    37    2
    35    33    38    1
    36    34    35    1
    37    34    36    1
    38    34    38    1
    39    34    39    1
    40    39    40    1
    41    39    41    1
    42    39    42    1
@<TRIPOS>SUBSTRUCTURE
     1 1           1 GROUP             0 ****  ****    0  
@<TRIPOS>MOLECULE
Molecule Name_00264
    42    42     1     0     0
SMALL
NO_CHARGES
****
Generated from the CSD

@<TRIPOS>ATOM
     1 C1       3.5711  -0.3895  -0.0972   C.ar      1 1      0.0000
     2 C2       2.8934   0.7912  -0.3050   C.ar      1 1      0.0000
     3 C3       1.5281   0.8175  -0.0856   C.ar      1 1      0.0000
     4 C4       0.8388  -0.3150   0.3333   C.ar      1 1      0.0000
     5 C5       1.5631  -1.4848   0.5342   C.ar      1 1      0.0000
     6 C6       2.9287  -1.5337   0.3210   C.ar      1 1      0.0000
     7 H7       3.4192   1.6816  -0.6336   H         1 1      0.0000
     8 H8       0.9883   1.7447  -0.2446   H         1 1      0.0000
     9 H9       1.0502  -2.3813   0.8661   H         1 1      0.0000
    10 H10      3.4820  -2.4534   0.4799   H         1 1      0.0000
    11 N11      5.0201  -0.4296  -0.3280   N.pl3     1 1      0.0000
    12 O12      5.6067  -1.4840  -0.1394   O.2       1 1      0.0000
    13 O13      5.5751   0.5931  -0.6985   O.2       1 1      0.0000
    14 CL3     -0.6728  -0.2811   0.5634   C.3       1 1      0.0000
    15 CL1     -1.4359  -0.6757  -0.7328   C.3       1 1      0.0000
    16 H16     -1.2298   0.0762  -1.5041   H         1 1      0.0000
    17 H17     -1.0268  -1.6258  -1.0980   H         1 1      0.0000
    18 CL      -2.9612  -0.8314  -0.6006   C.3       1 1      0.0000
    19 CL2     -3.5468  -1.1343  -1.9676   C.3       1 1      0.0000
    20 H20     -4.6267  -1.2525  -1.9070   H         1 1      0.0000
    21 H21     -3.3328  -0.3280  -2.6661   H         1 1      0.0000
    22 H22     -3.1274  -2.0532  -2.3719   H         1 1      0.0000
    23 OL2     -0.9717  -1.1806   1.6235   O.3       1 1      0.0000
    24 H24     -1.9408  -1.1486   1.8183   H         1 1      0.0000
    25 N25     -3.2797  -1.9201   0.2857   N.3       1 1      0.0000
    26 H26     -3.8379  -1.5329   1.0465   H         1 1      0.0000
    27 C27     -4.0390  -3.0374  -0.2784   C.3       1 1      0.0000
    28 H28     -3.4980  -3.4930  -1.1051   H         1 1      0.0000
    29 H29     -4.2151  -3.8030   0.4743   H         1 1      0.0000
    30 H30     -5.0040  -2.6992  -0.6501   H         1 1      0.0000
    31 OL1     -3.5256   0.3986  -0.1620   O.3       1 1      0.0000
    32 H32     -4.5084   0.3062  -0.1014   H         1 1      0.0000
    33 CL4     -0.9842   1.1658   0.9957   C.2       1 1      0.0000
    34 C34     -1.6174   3.3248   0.2449   C.3       1 1      0.0000
    35 H35     -2.4695   3.3874   0.9329   H         1 1      0.0000
    36 H36     -0.7629   3.8161   0.7264   H         1 1      0.0000
    37 OL3     -0.9408   1.5416   2.1347   O.2       1 1      0.0000
    38 OL4     -1.3018   1.9304  -0.0419   O.3       1 1      0.0000
    39 C39     -1.9410   3.9974  -1.0332   C.3       1 1      0.0000
    40 H40     -2.7947   3.5233  -1.5131   H         1 1      0.0000
    41 H41     -2.1840   5.0448  -0.8671   H         1 1      0.0000
    42 H42     -1.0973   3.9497  -1.7185   H         1 1      0.0000
@<TRIPOS>BOND
     1     1     2   ar
     2     1     6   ar
     3     1    11    1
     4     2     3   ar
     5     2     7    1
     6     3     4   ar
     7     3     8    1
     8     4     5   ar
     9     4    14    1
    10     5     6   ar
    11     5     9    1
    12     6    10    1
    13    11    12    2
    14    11    13    2
    15    14    15    1
    16    14    23    1
    17    14    33    1
    18    15    16    1
    19    15    17    1
    20    15    18    1
    21    18    19    1
    22    18    25    1
    23    18    31    1
    24    19    20    1
    25    19    21    1
    26    19    22    1
    27    23    24    1
    28    25    26    1
    29    25    27    1
    30    27    28    1
    31    27    29    1
    32    27    30    1
    33    31    32    1
    34    33    37    2
    35    33    38    1
    36    34    35    1
    37    34    36    1
    38    34    38    1
    39    34    39    1
    40    39    40    1
    41    39    41    1
    42    39    42    1
@<TRIPOS>SUBSTRUCTURE
     1 1           1 GROUP             0 ****  ****    0  
@<TRIPOS>MOLECULE
Molecule Name_00265
    42    42     1     0     0
SMALL
NO_CHARGES
****
Generated from the CSD

@<TRIPOS>ATOM
     1 C1       3.6067  -0.3954  -0.2025   C.ar      1 1      0.0000
     2 C2       3.0115   0.6144   0.5205   C.ar      1 1      0.0000
     3 C3       1.6384   0.5895   0.6845   C.ar      1 1      0.0000
     4 C4       0.8606  -0.4241   0.1358   C.ar      1 1      0.0000
     5 C5       1.5034  -1.4254  -0.5836   C.ar      1 1      0.0000
     6 C6       2.8752  -1.4204  -0.7599   C.ar      1 1      0.0000
     7 H7       3.6068   1.4121   0.9522   H         1 1      0.0000
     8 H8       1.1631   1.3800   1.2550   H         1 1      0.0000
     9 H9       0.9203  -2.2308  -1.0176   H         1 1      0.0000
    10 H10      3.3643  -2.2069  -1.3250   H         1 1      0.0000
    11 N11      5.0632  -0.3787  -0.3841   N.pl3     1 1      0.0000
    12 O12      5.5760  -1.2810  -1.0276   O.2       1 1      0.0000
    13 O13      5.6979   0.5367   0.1164   O.2       1 1      0.0000
    14 CL3     -0.6584  -0.4390   0.3122   C.3       1 1      0.0000
    15 CL1     -1.3718  -0.5326  -1.0664   C.3       1 1      0.0000
    16 H16     -1.0977   0.3453  -1.6637   H         1 1      0.0000
    17 H17     -0.9836  -1.4111  -1.5965   H         1 1      0.0000
    18 CL      -2.9068  -0.6361  -1.0297   C.3       1 1      0.0000
    19 CL2     -3.4346  -0.6529  -2.4526   C.3       1 1      0.0000
    20 H20     -4.5208  -0.7142  -2.4603   H         1 1      0.0000
    21 H21     -3.1423   0.2509  -2.9831   H         1 1      0.0000
    22 H22     -3.0430  -1.5083  -2.9991   H         1 1      0.0000
    23 OL2     -0.9901  -1.5519   1.1332   O.3       1 1      0.0000
    24 H24     -1.7571  -1.3166   1.7116   H         1 1      0.0000
    25 N25     -3.3124  -1.8528  -0.3762   N.3       1 1      0.0000
    26 H26     -2.4615  -2.3326  -0.0827   H         1 1      0.0000
    27 C27     -4.1613  -1.7207   0.8091   C.3       1 1      0.0000
    28 H28     -5.1544  -1.3705   0.5352   H         1 1      0.0000
    29 H29     -4.2673  -2.6774   1.3162   H         1 1      0.0000
    30 H30     -3.7334  -1.0097   1.5128   H         1 1      0.0000
    31 OL1     -3.4432   0.5178  -0.3935   O.3       1 1      0.0000
    32 H32     -4.4217   0.5458  -0.5344   H         1 1      0.0000
    33 CL4     -0.9940   0.8754   1.0448   C.2       1 1      0.0000
    34 C34     -1.2830   3.2171   0.8010   C.3       1 1      0.0000
    35 H35     -0.8624   3.2886   1.8117   H         1 1      0.0000
    36 H36     -0.8365   4.0162   0.1965   H         1 1      0.0000
    37 OL3     -1.2365   0.9374   2.2186   O.2       1 1      0.0000
    38 OL4     -0.9795   1.9149   0.2193   O.3       1 1      0.0000
    39 C39     -2.7543   3.3710   0.8467   C.3       1 1      0.0000
    40 H40     -3.2052   2.5885   1.4534   H         1 1      0.0000
    41 H41     -3.0284   4.3326   1.2755   H         1 1      0.0000
    42 H42     -3.1794   3.3121  -0.1530   H         1 1      0.0000
@<TRIPOS>BOND
     1     1     2   ar
     2     1     6   ar
     3     1    11    1
     4     2     3   ar
     5     2     7    1
     6     3     4   ar
     7     3     8    1
     8     4     5   ar
     9     4    14    1
    10     5     6   ar
    11     5     9    1
    12     6    10    1
    13    11    12    2
    14    11    13    2
    15    14    15    1
    16    14    23    1
    17    14    33    1
    18    15    16    1
    19    15    17    1
    20    15    18    1
    21    18    19    1
    22    18    25    1
    23    18    31    1
    24    19    20    1
    25    19    21    1
    26    19    22    1
    27    23    24    1
    28    25    26    1
    29    25    27    1
    30    27    28    1
    31    27    29    1
    32    27    30    1
    33    31    32    1
    34    33    37    2
    35    33    38    1
    36    34    35    1
    37    34    36    1
    38    34    38    1
    39    34    39    1
    40    39    40    1
    41    39    41    1
    42    39    42    1
@<TRIPOS>SUBSTRUCTURE
     1 1           1 GROUP             0 ****  ****    0  
@<TRIPOS>MOLECULE
Molecule Name_00266
    42    42     1     0     0
SMALL
NO_CHARGES
****
Generated from the CSD

@<TRIPOS>ATOM
     1 C1       3.4984  -0.2465  -0.2375   C.ar      1 1      0.0000
     2 C2       2.8553   0.7597   0.4485   C.ar      1 1      0.0000
     3 C3       1.4864   0.6701   0.6244   C.ar      1 1      0.0000
     4 C4       0.7597  -0.4045   0.1239   C.ar      1 1      0.0000
     5 C5       1.4498  -1.3996  -0.5593   C.ar      1 1      0.0000
     6 C6       2.8183  -1.3303  -0.7468   C.ar      1 1      0.0000
     7 H7       3.4106   1.6045   0.8425   H         1 1      0.0000
     8 H8       0.9737   1.4575   1.1660   H         1 1      0.0000
     9 H9       0.9072  -2.2515  -0.9554   H         1 1      0.0000
    10 H10      3.3446  -2.1129  -1.2832   H         1 1      0.0000
    11 N11      4.9509  -0.1614  -0.4314   N.pl3     1 1      0.0000
    12 O12      5.5065  -1.0614  -1.0417   O.2       1 1      0.0000
    13 O13      5.5396   0.8057   0.0262   O.2       1 1      0.0000
    14 CL3     -0.7555  -0.4913   0.3129   C.3       1 1      0.0000
    15 CL1     -1.4711  -0.6786  -1.0549   C.3       1 1      0.0000
    16 H16     -1.2470   0.1871  -1.6897   H         1 1      0.0000
    17 H17     -1.0406  -1.5568  -1.5518   H         1 1      0.0000
    18 CL      -2.9983  -0.8604  -1.0016   C.3       1 1      0.0000
    19 CL2     -3.5329  -0.9633  -2.4183   C.3       1 1      0.0000
    20 H20     -4.6145  -1.0814  -2.4148   H         1 1      0.0000
    21 H21     -3.2916  -0.0680  -2.9876   H         1 1      0.0000
    22 H22     -3.1002  -1.8188  -2.9326   H         1 1      0.0000
    23 OL2     -1.0235  -1.5852   1.1813   O.3       1 1      0.0000
    24 H24     -1.7985  -1.3668   1.7555   H         1 1      0.0000
    25 N25     -3.3357  -2.0686  -0.2957   N.3       1 1      0.0000
    26 H26     -2.4591  -2.4910   0.0102   H         1 1      0.0000
    27 C27     -4.1834  -1.9323   0.8900   C.3       1 1      0.0000
    28 H28     -5.1951  -1.6464   0.6100   H         1 1      0.0000
    29 H29     -4.2356  -2.8715   1.4367   H         1 1      0.0000
    30 H30     -3.7893  -1.1714   1.5604   H         1 1      0.0000
    31 OL1     -3.5907   0.2891  -0.4087   O.3       1 1      0.0000
    32 H32     -4.5701   0.2605  -0.5430   H         1 1      0.0000
    33 CL4     -1.1551   0.8329   0.9940   C.2       1 1      0.0000
    34 C34     -1.5679   3.1443   0.6573   C.3       1 1      0.0000
    35 H35     -1.9934   3.7701  -0.1369   H         1 1      0.0000
    36 H36     -2.3285   3.0359   1.4403   H         1 1      0.0000
    37 OL3     -1.3936   0.9304   2.1662   O.2       1 1      0.0000
    38 OL4     -1.2000   1.8369   0.1267   O.3       1 1      0.0000
    39 C39     -0.3501   3.7775   1.2108   C.3       1 1      0.0000
    40 H40      0.4065   3.8990   0.4384   H         1 1      0.0000
    41 H41     -0.5778   4.7597   1.6196   H         1 1      0.0000
    42 H42      0.0733   3.1687   2.0070   H         1 1      0.0000
@<TRIPOS>BOND
     1     1     2   ar
     2     1     6   ar
     3     1    11    1
     4     2     3   ar
     5     2     7    1
     6     3     4   ar
     7     3     8    1
     8     4     5   ar
     9     4    14    1
    10     5     6   ar
    11     5     9    1
    12     6    10    1
    13    11    12    2
    14    11    13    2
    15    14    15    1
    16    14    23    1
    17    14    33    1
    18    15    16    1
    19    15    17    1
    20    15    18    1
    21    18    19    1
    22    18    25    1
    23    18    31    1
    24    19    20    1
    25    19    21    1
    26    19    22    1
    27    23    24    1
    28    25    26    1
    29    25    27    1
    30    27    28    1
    31    27    29    1
    32    27    30    1
    33    31    32    1
    34    33    37    2
    35    33    38    1
    36    34    35    1
    37    34    36    1
    38    34    38    1
    39    34    39    1
    40    39    40    1
    41    39    41    1
    42    39    42    1
@<TRIPOS>SUBSTRUCTURE
     1 1           1 GROUP             0 ****  ****    0  
@<TRIPOS>MOLECULE
Molecule Name_00267
    42    42     1     0     0
SMALL
NO_CHARGES
****
Generated from the CSD

@<TRIPOS>ATOM
     1 C1       3.6205  -0.3652  -0.2328   C.ar      1 1      0.0000
     2 C2       3.0225   0.6053   0.5400   C.ar      1 1      0.0000
     3 C3       1.6554   0.5425   0.7395   C.ar      1 1      0.0000
     4 C4       0.8861  -0.4702   0.1773   C.ar      1 1      0.0000
     5 C5       1.5315  -1.4313  -0.5929   C.ar      1 1      0.0000
     6 C6       2.8974  -1.3879  -0.8054   C.ar      1 1      0.0000
     7 H7       3.6112   1.4019   0.9828   H         1 1      0.0000
     8 H8       1.1781   1.3019   1.3491   H         1 1      0.0000
     9 H9       0.9552  -2.2351  -1.0386   H         1 1      0.0000
    10 H10      3.3886  -2.1432  -1.4099   H         1 1      0.0000
    11 N11      5.0708  -0.3080  -0.4524   N.pl3     1 1      0.0000
    12 O12      5.5861  -1.1758  -1.1398   O.2       1 1      0.0000
    13 O13      5.6979   0.6048   0.0622   O.2       1 1      0.0000
    14 CL3     -0.6268  -0.5269   0.3934   C.3       1 1      0.0000
    15 CL1     -1.3744  -0.6153  -0.9674   C.3       1 1      0.0000
    16 H16     -1.2692   0.3439  -1.4885   H         1 1      0.0000
    17 H17     -0.8743  -1.3699  -1.5870   H         1 1      0.0000
    18 CL      -2.8703  -0.9693  -0.8972   C.3       1 1      0.0000
    19 CL2     -3.0250  -2.3328  -0.2488   C.3       1 1      0.0000
    20 H20     -3.8704  -2.8689  -0.6749   H         1 1      0.0000
    21 H21     -2.1313  -2.9349  -0.3990   H         1 1      0.0000
    22 H22     -3.1910  -2.2341   0.8220   H         1 1      0.0000
    23 OL2     -0.9084  -1.6616   1.2031   O.3       1 1      0.0000
    24 H24     -1.5852  -1.4206   1.8828   H         1 1      0.0000
    25 N25     -3.5786  -0.0009  -0.1020   N.3       1 1      0.0000
    26 H26     -2.9131   0.7345   0.1365   H         1 1      0.0000
    27 C27     -4.7348   0.6505  -0.7200   C.3       1 1      0.0000
    28 H28     -5.4842  -0.0845  -1.0061   H         1 1      0.0000
    29 H29     -5.1960   1.3536  -0.0296   H         1 1      0.0000
    30 H30     -4.4381   1.1971  -1.6126   H         1 1      0.0000
    31 OL1     -3.3955  -1.0663  -2.2158   O.3       1 1      0.0000
    32 H32     -4.3011  -1.4622  -2.1806   H         1 1      0.0000
    33 CL4     -0.9755   0.7660   1.1577   C.2       1 1      0.0000
    34 C34     -1.2576   3.1142   0.9773   C.3       1 1      0.0000
    35 H35     -0.8569   3.1554   1.9976   H         1 1      0.0000
    36 H36     -0.7987   3.9301   0.4053   H         1 1      0.0000
    37 OL3     -1.2409   0.7937   2.3278   O.2       1 1      0.0000
    38 OL4     -0.9440   1.8292   0.3635   O.3       1 1      0.0000
    39 C39     -2.7294   3.2688   0.9988   C.3       1 1      0.0000
    40 H40     -3.1951   2.4515   1.5455   H         1 1      0.0000
    41 H41     -3.0121   4.2028   1.4797   H         1 1      0.0000
    42 H42     -3.1316   3.2728  -0.0122   H         1 1      0.0000
@<TRIPOS>BOND
     1     1     2   ar
     2     1     6   ar
     3     1    11    1
     4     2     3   ar
     5     2     7    1
     6     3     4   ar
     7     3     8    1
     8     4     5   ar
     9     4    14    1
    10     5     6   ar
    11     5     9    1
    12     6    10    1
    13    11    12    2
    14    11    13    2
    15    14    15    1
    16    14    23    1
    17    14    33    1
    18    15    16    1
    19    15    17    1
    20    15    18    1
    21    18    19    1
    22    18    25    1
    23    18    31    1
    24    19    20    1
    25    19    21    1
    26    19    22    1
    27    23    24    1
    28    25    26    1
    29    25    27    1
    30    27    28    1
    31    27    29    1
    32    27    30    1
    33    31    32    1
    34    33    37    2
    35    33    38    1
    36    34    35    1
    37    34    36    1
    38    34    38    1
    39    34    39    1
    40    39    40    1
    41    39    41    1
    42    39    42    1
@<TRIPOS>SUBSTRUCTURE
     1 1           1 GROUP             0 ****  ****    0  
@<TRIPOS>MOLECULE
Molecule Name_00268
    42    42     1     0     0
SMALL
NO_CHARGES
****
Generated from the CSD

@<TRIPOS>ATOM
     1 C1       3.5187  -0.2361  -0.1362   C.ar      1 1      0.0000
     2 C2       2.8472   0.9107   0.2250   C.ar      1 1      0.0000
     3 C3       1.4843   0.8365   0.4484   C.ar      1 1      0.0000
     4 C4       0.7913  -0.3613   0.3131   C.ar      1 1      0.0000
     5 C5       1.5095  -1.4953  -0.0497   C.ar      1 1      0.0000
     6 C6       2.8726  -1.4440  -0.2778   C.ar      1 1      0.0000
     7 H7       3.3759   1.8521   0.3322   H         1 1      0.0000
     8 H8       0.9494   1.7351   0.7358   H         1 1      0.0000
     9 H9       0.9937  -2.4437  -0.1569   H         1 1      0.0000
    10 H10      3.4210  -2.3360  -0.5621   H         1 1      0.0000
    11 N11      4.9652  -0.1691  -0.3769   N.pl3     1 1      0.0000
    12 O12      5.5462  -1.1945  -0.6965   O.2       1 1      0.0000
    13 O13      5.5236   0.9091  -0.2471   O.2       1 1      0.0000
    14 CL3     -0.7177  -0.4334   0.5512   C.3       1 1      0.0000
    15 CL1     -1.4378  -1.0724  -0.6701   C.3       1 1      0.0000
    16 H16     -1.3881  -0.3721  -1.5126   H         1 1      0.0000
    17 H17     -0.8803  -1.9687  -0.9688   H         1 1      0.0000
    18 CL      -2.9082  -1.4729  -0.4566   C.3       1 1      0.0000
    19 CL2     -2.9827  -2.5031   0.6555   C.3       1 1      0.0000
    20 H20     -3.7849  -3.2141   0.4694   H         1 1      0.0000
    21 H21     -2.0494  -3.0571   0.7311   H         1 1      0.0000
    22 H22     -3.1706  -2.0232   1.6137   H         1 1      0.0000
    23 OL2     -0.9361  -1.2001   1.7289   O.3       1 1      0.0000
    24 H24     -1.6238  -0.7584   2.2858   H         1 1      0.0000
    25 N25     -3.6899  -0.3269  -0.0726   N.3       1 1      0.0000
    26 H26     -3.0777   0.4867  -0.1330   H         1 1      0.0000
    27 C27     -4.8772  -0.0312  -0.8764   C.3       1 1      0.0000
    28 H28     -5.5759  -0.8649  -0.8534   H         1 1      0.0000
    29 H29     -5.3894   0.8509  -0.4979   H         1 1      0.0000
    30 H30     -4.6046   0.1540  -1.9133   H         1 1      0.0000
    31 OL1     -3.4065  -2.0893  -1.6379   O.3       1 1      0.0000
    32 H32     -4.2882  -2.4959  -1.4496   H         1 1      0.0000
    33 CL4     -1.1614   1.0251   0.7815   C.2       1 1      0.0000
    34 C34     -1.5940   3.1123  -0.2591   C.3       1 1      0.0000
    35 H35     -1.9982   3.4550  -1.2196   H         1 1      0.0000
    36 H36     -2.3819   3.2291   0.4953   H         1 1      0.0000
    37 OL3     -1.4452   1.4697   1.8596   O.2       1 1      0.0000
    38 OL4     -1.1879   1.7149  -0.3523   O.3       1 1      0.0000
    39 C39     -0.4069   3.9144   0.1122   C.3       1 1      0.0000
    40 H40      0.3763   3.8132  -0.6362   H         1 1      0.0000
    41 H41     -0.6638   4.9685   0.1935   H         1 1      0.0000
    42 H42     -0.0052   3.5886   1.0693   H         1 1      0.0000
@<TRIPOS>BOND
     1     1     2   ar
     2     1     6   ar
     3     1    11    1
     4     2     3   ar
     5     2     7    1
     6     3     4   ar
     7     3     8    1
     8     4     5   ar
     9     4    14    1
    10     5     6   ar
    11     5     9    1
    12     6    10    1
    13    11    12    2
    14    11    13    2
    15    14    15    1
    16    14    23    1
    17    14    33    1
    18    15    16    1
    19    15    17    1
    20    15    18    1
    21    18    19    1
    22    18    25    1
    23    18    31    1
    24    19    20    1
    25    19    21    1
    26    19    22    1
    27    23    24    1
    28    25    26    1
    29    25    27    1
    30    27    28    1
    31    27    29    1
    32    27    30    1
    33    31    32    1
    34    33    37    2
    35    33    38    1
    36    34    35    1
    37    34    36    1
    38    34    38    1
    39    34    39    1
    40    39    40    1
    41    39    41    1
    42    39    42    1
@<TRIPOS>SUBSTRUCTURE
     1 1           1 GROUP             0 ****  ****    0  
@<TRIPOS>MOLECULE
Molecule Name_00269
    42    42     1     0     0
SMALL
NO_CHARGES
****
Generated from the CSD

@<TRIPOS>ATOM
     1 C1       3.5135  -0.4814  -0.0142   C.ar      1 1      0.0000
     2 C2       2.9604   0.7782   0.0501   C.ar      1 1      0.0000
     3 C3       1.6039   0.8932   0.2943   C.ar      1 1      0.0000
     4 C4       0.8011  -0.2283   0.4708   C.ar      1 1      0.0000
     5 C5       1.4017  -1.4804   0.4013   C.ar      1 1      0.0000
     6 C6       2.7562  -1.6187   0.1584   C.ar      1 1      0.0000
     7 H7       3.5756   1.6613  -0.0877   H         1 1      0.0000
     8 H8       1.1620   1.8821   0.3489   H         1 1      0.0000
     9 H9       0.7988  -2.3715   0.5407   H         1 1      0.0000
    10 H10      3.2123  -2.6017   0.1049   H         1 1      0.0000
    11 N11      4.9520  -0.6157  -0.2739   N.pl3     1 1      0.0000
    12 O12      5.4274  -1.7392  -0.3280   O.2       1 1      0.0000
    13 O13      5.6098   0.4021  -0.4245   O.2       1 1      0.0000
    14 CL3     -0.7001  -0.0935   0.7296   C.3       1 1      0.0000
    15 CL1     -1.5132  -0.9325  -0.2968   C.3       1 1      0.0000
    16 H16     -1.3726  -0.4990  -1.2943   H         1 1      0.0000
    17 H17     -1.0899  -1.9441  -0.3275   H         1 1      0.0000
    18 CL      -3.0235  -1.0543  -0.0278   C.3       1 1      0.0000
    19 CL2     -3.6345   0.3348  -0.0060   C.3       1 1      0.0000
    20 H20     -4.7134   0.2836  -0.1370   H         1 1      0.0000
    21 H21     -3.4312   0.8308   0.9408   H         1 1      0.0000
    22 H22     -3.2248   0.9489  -0.8052   H         1 1      0.0000
    23 OL2     -0.9534  -0.5312   2.0588   O.3       1 1      0.0000
    24 H24     -1.9140  -0.4178   2.2648   H         1 1      0.0000
    25 N25     -3.6589  -1.8181  -1.0693   N.3       1 1      0.0000
    26 H26     -4.3350  -1.2026  -1.5215   H         1 1      0.0000
    27 C27     -2.7954  -2.3547  -2.1227   C.3       1 1      0.0000
    28 H28     -2.0282  -3.0006  -1.7007   H         1 1      0.0000
    29 H29     -3.3741  -2.9373  -2.8363   H         1 1      0.0000
    30 H30     -2.3013  -1.5502  -2.6634   H         1 1      0.0000
    31 OL1     -3.2299  -1.6271   1.2580   O.3       1 1      0.0000
    32 H32     -4.2002  -1.6819   1.4415   H         1 1      0.0000
    33 CL4     -0.9989   1.4139   0.6048   C.2       1 1      0.0000
    34 C34     -1.2704   3.2223  -0.9059   C.3       1 1      0.0000
    35 H35     -0.7735   3.8285  -0.1384   H         1 1      0.0000
    36 H36     -0.8604   3.5158  -1.8802   H         1 1      0.0000
    37 OL3     -1.1795   2.1346   1.5473   O.2       1 1      0.0000
    38 OL4     -1.0295   1.8048  -0.6635   O.3       1 1      0.0000
    39 C39     -2.7318   3.4543  -0.8746   C.3       1 1      0.0000
    40 H40     -3.1482   3.1625   0.0872   H         1 1      0.0000
    41 H41     -2.9590   4.5059  -1.0373   H         1 1      0.0000
    42 H42     -3.2308   2.8760  -1.6494   H         1 1      0.0000
@<TRIPOS>BOND
     1     1     2   ar
     2     1     6   ar
     3     1    11    1
     4     2     3   ar
     5     2     7    1
     6     3     4   ar
     7     3     8    1
     8     4     5   ar
     9     4    14    1
    10     5     6   ar
    11     5     9    1
    12     6    10    1
    13    11    12    2
    14    11    13    2
    15    14    15    1
    16    14    23    1
    17    14    33    1
    18    15    16    1
    19    15    17    1
    20    15    18    1
    21    18    19    1
    22    18    25    1
    23    18    31    1
    24    19    20    1
    25    19    21    1
    26    19    22    1
    27    23    24    1
    28    25    26    1
    29    25    27    1
    30    27    28    1
    31    27    29    1
    32    27    30    1
    33    31    32    1
    34    33    37    2
    35    33    38    1
    36    34    35    1
    37    34    36    1
    38    34    38    1
    39    34    39    1
    40    39    40    1
    41    39    41    1
    42    39    42    1
@<TRIPOS>SUBSTRUCTURE
     1 1           1 GROUP             0 ****  ****    0  
@<TRIPOS>MOLECULE
Molecule Name_00270
    42    42     1     0     0
SMALL
NO_CHARGES
****
Generated from the CSD

@<TRIPOS>ATOM
     1 C1       3.5916  -0.4036  -0.0245   C.ar      1 1      0.0000
     2 C2       3.0214   0.8409   0.1267   C.ar      1 1      0.0000
     3 C3       1.6579   0.9216   0.3437   C.ar      1 1      0.0000
     4 C4       0.8649  -0.2188   0.4082   C.ar      1 1      0.0000
     5 C5       1.4827  -1.4549   0.2537   C.ar      1 1      0.0000
     6 C6       2.8445  -1.5589   0.0359   C.ar      1 1      0.0000
     7 H7       3.6287   1.7386   0.0767   H         1 1      0.0000
     8 H8       1.2024   1.8982   0.4664   H         1 1      0.0000
     9 H9       0.8876  -2.3605   0.3050   H         1 1      0.0000
    10 H10      3.3140  -2.5296  -0.0847   H         1 1      0.0000
    11 N11      5.0378  -0.5014  -0.2565   N.pl3     1 1      0.0000
    12 O12      5.5283  -1.6119  -0.3885   O.2       1 1      0.0000
    13 O13      5.6864   0.5320  -0.3073   O.2       1 1      0.0000
    14 CL3     -0.6439  -0.1211   0.6377   C.3       1 1      0.0000
    15 CL1     -1.4203  -0.8827  -0.4739   C.3       1 1      0.0000
    16 H16     -1.2639  -0.3657  -1.4283   H         1 1      0.0000
    17 H17     -0.9807  -1.8823  -0.5783   H         1 1      0.0000
    18 CL      -2.9342  -1.0470  -0.2521   C.3       1 1      0.0000
    19 CL2     -3.5638   0.3263  -0.1067   C.3       1 1      0.0000
    20 H20     -4.6396   0.2757  -0.2610   H         1 1      0.0000
    21 H21     -3.3825   0.7303   0.8871   H         1 1      0.0000
    22 H22     -3.1491   1.0198  -0.8353   H         1 1      0.0000
    23 OL2     -0.9252  -0.6675   1.9202   O.3       1 1      0.0000
    24 H24     -1.8920  -0.5811   2.1094   H         1 1      0.0000
    25 N25     -3.5374  -1.7106  -1.3781   N.3       1 1      0.0000
    26 H26     -2.7881  -1.9225  -2.0369   H         1 1      0.0000
    27 C27     -4.2427  -2.9655  -1.1119   C.3       1 1      0.0000
    28 H28     -5.0602  -2.8074  -0.4116   H         1 1      0.0000
    29 H29     -4.6573  -3.3771  -2.0297   H         1 1      0.0000
    30 H30     -3.5678  -3.7039  -0.6839   H         1 1      0.0000
    31 OL1     -3.1603  -1.7468   0.9657   O.3       1 1      0.0000
    32 H32     -4.1279  -1.7462   1.1703   H         1 1      0.0000
    33 CL4     -0.9583   1.3883   0.6270   C.2       1 1      0.0000
    34 C34     -1.2124   3.3105  -0.7394   C.3       1 1      0.0000
    35 H35     -0.7417   3.8571   0.0871   H         1 1      0.0000
    36 H36     -0.7815   3.6855  -1.6759   H         1 1      0.0000
    37 OL3     -1.1717   2.0284   1.6195   O.2       1 1      0.0000
    38 OL4     -0.9617   1.8802  -0.6059   O.3       1 1      0.0000
    39 C39     -2.6766   3.5258  -0.7273   C.3       1 1      0.0000
    40 H40     -3.1141   3.1504   0.1954   H         1 1      0.0000
    41 H41     -2.9114   4.5851  -0.8072   H         1 1      0.0000
    42 H42     -3.1492   3.0101  -1.5607   H         1 1      0.0000
@<TRIPOS>BOND
     1     1     2   ar
     2     1     6   ar
     3     1    11    1
     4     2     3   ar
     5     2     7    1
     6     3     4   ar
     7     3     8    1
     8     4     5   ar
     9     4    14    1
    10     5     6   ar
    11     5     9    1
    12     6    10    1
    13    11    12    2
    14    11    13    2
    15    14    15    1
    16    14    23    1
    17    14    33    1
    18    15    16    1
    19    15    17    1
    20    15    18    1
    21    18    19    1
    22    18    25    1
    23    18    31    1
    24    19    20    1
    25    19    21    1
    26    19    22    1
    27    23    24    1
    28    25    26    1
    29    25    27    1
    30    27    28    1
    31    27    29    1
    32    27    30    1
    33    31    32    1
    34    33    37    2
    35    33    38    1
    36    34    35    1
    37    34    36    1
    38    34    38    1
    39    34    39    1
    40    39    40    1
    41    39    41    1
    42    39    42    1
@<TRIPOS>SUBSTRUCTURE
     1 1           1 GROUP             0 ****  ****    0  
@<TRIPOS>MOLECULE
Molecule Name_00271
    42    42     1     0     0
SMALL
NO_CHARGES
****
Generated from the CSD

@<TRIPOS>ATOM
     1 C1       3.5973  -0.4076  -0.0995   C.ar      1 1      0.0000
     2 C2       3.0249   0.7889   0.2715   C.ar      1 1      0.0000
     3 C3       1.6578   0.8327   0.4760   C.ar      1 1      0.0000
     4 C4       0.8633  -0.2966   0.3124   C.ar      1 1      0.0000
     5 C5       1.4833  -1.4844  -0.0594   C.ar      1 1      0.0000
     6 C6       2.8487  -1.5510  -0.2690   C.ar      1 1      0.0000
     7 H7       3.6334   1.6778   0.4007   H         1 1      0.0000
     8 H8       1.2006   1.7709   0.7709   H         1 1      0.0000
     9 H9       0.8870  -2.3815  -0.1886   H         1 1      0.0000
    10 H10      3.3199  -2.4839  -0.5605   H         1 1      0.0000
    11 N11      5.0473  -0.4658  -0.3204   N.pl3     1 1      0.0000
    12 O12      5.5397  -1.5338  -0.6489   O.2       1 1      0.0000
    13 O13      5.6971   0.5565  -0.1659   O.2       1 1      0.0000
    14 CL3     -0.6494  -0.2379   0.5297   C.3       1 1      0.0000
    15 CL1     -1.4062  -0.7695  -0.7204   C.3       1 1      0.0000
    16 H16     -1.1515  -0.1375  -1.5798   H         1 1      0.0000
    17 H17     -1.0348  -1.7768  -0.9458   H         1 1      0.0000
    18 CL      -2.9392  -0.8398  -0.6056   C.3       1 1      0.0000
    19 CL2     -3.5119  -1.3151  -1.9283   C.3       1 1      0.0000
    20 H20     -4.5970  -1.3777  -1.8785   H         1 1      0.0000
    21 H21     -3.2485  -0.6298  -2.7312   H         1 1      0.0000
    22 H22     -3.1270  -2.3002  -2.1835   H         1 1      0.0000
    23 OL2     -0.9544  -1.0181   1.6789   O.3       1 1      0.0000
    24 H24     -1.9244  -0.9652   1.8641   H         1 1      0.0000
    25 N25     -3.3233  -1.7722   0.4215   N.3       1 1      0.0000
    26 H26     -3.8778  -1.2544   1.1033   H         1 1      0.0000
    27 C27     -4.1217  -2.9272   0.0074   C.3       1 1      0.0000
    28 H28     -3.5864  -3.5216  -0.7301   H         1 1      0.0000
    29 H29     -4.3465  -3.5660   0.8590   H         1 1      0.0000
    30 H30     -5.0632  -2.6071  -0.4340   H         1 1      0.0000
    31 OL1     -3.4554   0.4639  -0.3655   O.3       1 1      0.0000
    32 H32     -4.4424   0.4228  -0.3171   H         1 1      0.0000
    33 CL4     -0.9619   1.2471   0.8024   C.2       1 1      0.0000
    34 C34     -1.2593   3.3835  -0.1844   C.3       1 1      0.0000
    35 H35     -0.8069   3.7770   0.7342   H         1 1      0.0000
    36 H36     -0.8326   3.9368  -1.0301   H         1 1      0.0000
    37 OL3     -1.1670   1.6915   1.8982   O.2       1 1      0.0000
    38 OL4     -0.9740   1.9597  -0.3175   O.3       1 1      0.0000
    39 C39     -2.7285   3.5586  -0.1471   C.3       1 1      0.0000
    40 H40     -3.1596   3.0218   0.6953   H         1 1      0.0000
    41 H41     -2.9892   4.6103  -0.0481   H         1 1      0.0000
    42 H42     -3.1852   3.1807  -1.0594   H         1 1      0.0000
@<TRIPOS>BOND
     1     1     2   ar
     2     1     6   ar
     3     1    11    1
     4     2     3   ar
     5     2     7    1
     6     3     4   ar
     7     3     8    1
     8     4     5   ar
     9     4    14    1
    10     5     6   ar
    11     5     9    1
    12     6    10    1
    13    11    12    2
    14    11    13    2
    15    14    15    1
    16    14    23    1
    17    14    33    1
    18    15    16    1
    19    15    17    1
    20    15    18    1
    21    18    19    1
    22    18    25    1
    23    18    31    1
    24    19    20    1
    25    19    21    1
    26    19    22    1
    27    23    24    1
    28    25    26    1
    29    25    27    1
    30    27    28    1
    31    27    29    1
    32    27    30    1
    33    31    32    1
    34    33    37    2
    35    33    38    1
    36    34    35    1
    37    34    36    1
    38    34    38    1
    39    34    39    1
    40    39    40    1
    41    39    41    1
    42    39    42    1
@<TRIPOS>SUBSTRUCTURE
     1 1           1 GROUP             0 ****  ****    0  
@<TRIPOS>MOLECULE
Molecule Name_00272
    42    42     1     0     0
SMALL
NO_CHARGES
****
Generated from the CSD

@<TRIPOS>ATOM
     1 C1       3.4893  -0.2657  -0.1254   C.ar      1 1      0.0000
     2 C2       2.8599   0.9092   0.2208   C.ar      1 1      0.0000
     3 C3       1.4934   0.8897   0.4333   C.ar      1 1      0.0000
     4 C4       0.7556  -0.2815   0.3019   C.ar      1 1      0.0000
     5 C5       1.4321  -1.4455  -0.0457   C.ar      1 1      0.0000
     6 C6       2.7980  -1.4489  -0.2628   C.ar      1 1      0.0000
     7 H7       3.4238   1.8303   0.3248   H         1 1      0.0000
     8 H8       0.9914   1.8107   0.7089   H         1 1      0.0000
     9 H9       0.8808  -2.3741  -0.1496   H         1 1      0.0000
    10 H10      3.3138  -2.3638  -0.5352   H         1 1      0.0000
    11 N11      4.9392  -0.2568  -0.3545   N.pl3     1 1      0.0000
    12 O12      5.4827  -1.3066  -0.6609   O.2       1 1      0.0000
    13 O13      5.5379   0.8001  -0.2287   O.2       1 1      0.0000
    14 CL3     -0.7569  -0.2931   0.5278   C.3       1 1      0.0000
    15 CL1     -1.4930  -0.8918  -0.7043   C.3       1 1      0.0000
    16 H16     -1.2750  -0.2688  -1.5801   H         1 1      0.0000
    17 H17     -1.0729  -1.8844  -0.9081   H         1 1      0.0000
    18 CL      -3.0199  -1.0357  -0.5776   C.3       1 1      0.0000
    19 CL2     -3.5754  -1.5708  -1.8848   C.3       1 1      0.0000
    20 H20     -4.6557  -1.6862  -1.8263   H         1 1      0.0000
    21 H21     -3.3510  -0.8927  -2.7055   H         1 1      0.0000
    22 H22     -3.1430  -2.5413  -2.1191   H         1 1      0.0000
    23 OL2     -1.0162  -1.0598   1.6972   O.3       1 1      0.0000
    24 H24     -1.9867  -1.0508   1.8876   H         1 1      0.0000
    25 N25     -3.3513  -1.9611   0.4739   N.3       1 1      0.0000
    26 H26     -3.9273  -1.4554   1.1469   H         1 1      0.0000
    27 C27     -4.0931  -3.1643   0.0927   C.3       1 1      0.0000
    28 H28     -3.5327  -3.7487  -0.6341   H         1 1      0.0000
    29 H29     -4.2810  -3.7928   0.9607   H         1 1      0.0000
    30 H30     -5.0518  -2.9022  -0.3500   H         1 1      0.0000
    31 OL1     -3.5995   0.2460  -0.3651   O.3       1 1      0.0000
    32 H32     -4.5829   0.1568  -0.3092   H         1 1      0.0000
    33 CL4     -1.1419   1.1805   0.7672   C.2       1 1      0.0000
    34 C34     -1.5514   3.2750  -0.2681   C.3       1 1      0.0000
    35 H35     -1.9861   3.6255  -1.2123   H         1 1      0.0000
    36 H36     -2.3009   3.4220   0.5194   H         1 1      0.0000
    37 OL3     -1.3631   1.6403   1.8535   O.2       1 1      0.0000
    38 OL4     -1.1959   1.8645  -0.3692   O.3       1 1      0.0000
    39 C39     -0.3233   4.0395   0.0450   C.3       1 1      0.0000
    40 H40      0.4224   3.9083  -0.7364   H         1 1      0.0000
    41 H41     -0.5416   5.1020   0.1301   H         1 1      0.0000
    42 H42      0.1093   3.7059   0.9859   H         1 1      0.0000
@<TRIPOS>BOND
     1     1     2   ar
     2     1     6   ar
     3     1    11    1
     4     2     3   ar
     5     2     7    1
     6     3     4   ar
     7     3     8    1
     8     4     5   ar
     9     4    14    1
    10     5     6   ar
    11     5     9    1
    12     6    10    1
    13    11    12    2
    14    11    13    2
    15    14    15    1
    16    14    23    1
    17    14    33    1
    18    15    16    1
    19    15    17    1
    20    15    18    1
    21    18    19    1
    22    18    25    1
    23    18    31    1
    24    19    20    1
    25    19    21    1
    26    19    22    1
    27    23    24    1
    28    25    26    1
    29    25    27    1
    30    27    28    1
    31    27    29    1
    32    27    30    1
    33    31    32    1
    34    33    37    2
    35    33    38    1
    36    34    35    1
    37    34    36    1
    38    34    38    1
    39    34    39    1
    40    39    40    1
    41    39    41    1
    42    39    42    1
@<TRIPOS>SUBSTRUCTURE
     1 1           1 GROUP             0 ****  ****    0  
@<TRIPOS>MOLECULE
Molecule Name_00273
    42    42     1     0     0
SMALL
NO_CHARGES
****
Generated from the CSD

@<TRIPOS>ATOM
     1 C1       3.6238  -0.3626  -0.2438   C.ar      1 1      0.0000
     2 C2       2.9963   0.5325   0.5938   C.ar      1 1      0.0000
     3 C3       1.6237   0.4493   0.7418   C.ar      1 1      0.0000
     4 C4       0.8780  -0.5096   0.0652   C.ar      1 1      0.0000
     5 C5       1.5528  -1.3955  -0.7674   C.ar      1 1      0.0000
     6 C6       2.9247  -1.3305  -0.9302   C.ar      1 1      0.0000
     7 H7       3.5664   1.2867   1.1261   H         1 1      0.0000
     8 H8       1.1232   1.1493   1.4019   H         1 1      0.0000
     9 H9       0.9952  -2.1567  -1.3028   H         1 1      0.0000
    10 H10      3.4389  -2.0268  -1.5843   H         1 1      0.0000
    11 N11      5.0801  -0.2830  -0.4096   N.pl3     1 1      0.0000
    12 O12      5.6217  -1.0838  -1.1557   O.2       1 1      0.0000
    13 O13      5.6858   0.5805   0.2059   O.2       1 1      0.0000
    14 CL3     -0.6408  -0.5886   0.2255   C.3       1 1      0.0000
    15 CL1     -1.3443  -0.5322  -1.1602   C.3       1 1      0.0000
    16 H16     -1.0471   0.3937  -1.6673   H         1 1      0.0000
    17 H17     -0.9700  -1.3630  -1.7709   H         1 1      0.0000
    18 CL      -2.8814  -0.6057  -1.1435   C.3       1 1      0.0000
    19 CL2     -3.3046  -1.9755  -0.6454   C.3       1 1      0.0000
    20 H20     -4.3818  -2.1013  -0.7315   H         1 1      0.0000
    21 H21     -2.8242  -2.7617  -1.2241   H         1 1      0.0000
    22 H22     -3.0304  -2.1077   0.3991   H         1 1      0.0000
    23 OL2     -0.9444  -1.8027   0.9011   O.3       1 1      0.0000
    24 H24     -1.5702  -1.6177   1.6442   H         1 1      0.0000
    25 N25     -3.4220   0.3912  -0.2571   N.3       1 1      0.0000
    26 H26     -4.0016   1.0115  -0.8226   H         1 1      0.0000
    27 C27     -4.2543  -0.0831   0.8498   C.3       1 1      0.0000
    28 H28     -3.6704  -0.6896   1.5390   H         1 1      0.0000
    29 H29     -4.6714   0.7544   1.4052   H         1 1      0.0000
    30 H30     -5.0790  -0.6890   0.4803   H         1 1      0.0000
    31 OL1     -3.3756  -0.4671  -2.4703   O.3       1 1      0.0000
    32 H32     -4.3619  -0.5399  -2.4628   H         1 1      0.0000
    33 CL4     -1.0177   0.6161   1.1109   C.2       1 1      0.0000
    34 C34     -1.3622   2.9625   1.1559   C.3       1 1      0.0000
    35 H35     -0.9556   2.9172   2.1738   H         1 1      0.0000
    36 H36     -0.9287   3.8410   0.6621   H         1 1      0.0000
    37 OL3     -1.2757   0.5255   2.2795   O.2       1 1      0.0000
    38 OL4     -1.0194   1.7504   0.4213   O.3       1 1      0.0000
    39 C39     -2.8374   3.0751   1.1985   C.3       1 1      0.0000
    40 H40     -3.2757   2.2134   1.6975   H         1 1      0.0000
    41 H41     -3.1404   3.9698   1.7383   H         1 1      0.0000
    42 H42     -3.2491   3.1302   0.1929   H         1 1      0.0000
@<TRIPOS>BOND
     1     1     2   ar
     2     1     6   ar
     3     1    11    1
     4     2     3   ar
     5     2     7    1
     6     3     4   ar
     7     3     8    1
     8     4     5   ar
     9     4    14    1
    10     5     6   ar
    11     5     9    1
    12     6    10    1
    13    11    12    2
    14    11    13    2
    15    14    15    1
    16    14    23    1
    17    14    33    1
    18    15    16    1
    19    15    17    1
    20    15    18    1
    21    18    19    1
    22    18    25    1
    23    18    31    1
    24    19    20    1
    25    19    21    1
    26    19    22    1
    27    23    24    1
    28    25    26    1
    29    25    27    1
    30    27    28    1
    31    27    29    1
    32    27    30    1
    33    31    32    1
    34    33    37    2
    35    33    38    1
    36    34    35    1
    37    34    36    1
    38    34    38    1
    39    34    39    1
    40    39    40    1
    41    39    41    1
    42    39    42    1
@<TRIPOS>SUBSTRUCTURE
     1 1           1 GROUP             0 ****  ****    0  
@<TRIPOS>MOLECULE
Molecule Name_00274
    42    42     1     0     0
SMALL
NO_CHARGES
****
Generated from the CSD

@<TRIPOS>ATOM
     1 C1       3.5150  -0.2114  -0.2782   C.ar      1 1      0.0000
     2 C2       2.8435   0.6974   0.5091   C.ar      1 1      0.0000
     3 C3       1.4784   0.5484   0.6737   C.ar      1 1      0.0000
     4 C4       0.7831  -0.4891   0.0626   C.ar      1 1      0.0000
     5 C5       1.5012  -1.3858  -0.7208   C.ar      1 1      0.0000
     6 C6       2.8666  -1.2559  -0.8989   C.ar      1 1      0.0000
     7 H7       3.3740   1.5126   0.9900   H         1 1      0.0000
     8 H8       0.9435   1.2588   1.2945   H         1 1      0.0000
     9 H9       0.9836  -2.2075  -1.2044   H         1 1      0.0000
    10 H10      3.4150  -1.9615  -1.5142   H         1 1      0.0000
    11 N11      4.9638  -0.0625  -0.4610   N.pl3     1 1      0.0000
    12 O12      5.5448  -0.8763  -1.1620   O.2       1 1      0.0000
    13 O13      5.5242   0.8686   0.0960   O.2       1 1      0.0000
    14 CL3     -0.7282  -0.6411   0.2404   C.3       1 1      0.0000
    15 CL1     -1.4411  -0.7075  -1.1401   C.3       1 1      0.0000
    16 H16     -1.1979   0.2008  -1.7046   H         1 1      0.0000
    17 H17     -1.0248  -1.5522  -1.7027   H         1 1      0.0000
    18 CL      -2.9716  -0.8637  -1.1058   C.3       1 1      0.0000
    19 CL2     -3.3162  -2.2218  -0.5223   C.3       1 1      0.0000
    20 H20     -4.3853  -2.4113  -0.5915   H         1 1      0.0000
    21 H21     -2.7962  -3.0143  -1.0565   H         1 1      0.0000
    22 H22     -3.0296  -2.2751   0.5259   H         1 1      0.0000
    23 OL2     -0.9609  -1.8267   0.9906   O.3       1 1      0.0000
    24 H24     -1.5921  -1.6314   1.7266   H         1 1      0.0000
    25 N25     -3.5617   0.1542  -0.2766   N.3       1 1      0.0000
    26 H26     -4.1774   0.7064  -0.8735   H         1 1      0.0000
    27 C27     -4.3607  -0.2967   0.8641   C.3       1 1      0.0000
    28 H28     -3.7407  -0.8274   1.5836   H         1 1      0.0000
    29 H29     -4.8204   0.5489   1.3714   H         1 1      0.0000
    30 H30     -5.1527  -0.9681   0.5388   H         1 1      0.0000
    31 OL1     -3.4797  -0.8332  -2.4342   O.3       1 1      0.0000
    32 H32     -4.4605  -0.9592  -2.4139   H         1 1      0.0000
    33 CL4     -1.1663   0.5927   1.0547   C.2       1 1      0.0000
    34 C34     -1.6392   2.9152   0.9610   C.3       1 1      0.0000
    35 H35     -2.0777   3.6102   0.2343   H         1 1      0.0000
    36 H36     -2.4002   2.7046   1.7226   H         1 1      0.0000
    37 OL3     -1.4127   0.5593   2.2288   O.2       1 1      0.0000
    38 OL4     -1.2340   1.6813   0.2980   O.3       1 1      0.0000
    39 C39     -0.4412   3.5178   1.5873   C.3       1 1      0.0000
    40 H40      0.3153   3.7401   0.8376   H         1 1      0.0000
    41 H41     -0.6970   4.4449   2.0959   H         1 1      0.0000
    42 H42     -0.0054   2.8395   2.3178   H         1 1      0.0000
@<TRIPOS>BOND
     1     1     2   ar
     2     1     6   ar
     3     1    11    1
     4     2     3   ar
     5     2     7    1
     6     3     4   ar
     7     3     8    1
     8     4     5   ar
     9     4    14    1
    10     5     6   ar
    11     5     9    1
    12     6    10    1
    13    11    12    2
    14    11    13    2
    15    14    15    1
    16    14    23    1
    17    14    33    1
    18    15    16    1
    19    15    17    1
    20    15    18    1
    21    18    19    1
    22    18    25    1
    23    18    31    1
    24    19    20    1
    25    19    21    1
    26    19    22    1
    27    23    24    1
    28    25    26    1
    29    25    27    1
    30    27    28    1
    31    27    29    1
    32    27    30    1
    33    31    32    1
    34    33    37    2
    35    33    38    1
    36    34    35    1
    37    34    36    1
    38    34    38    1
    39    34    39    1
    40    39    40    1
    41    39    41    1
    42    39    42    1
@<TRIPOS>SUBSTRUCTURE
     1 1           1 GROUP             0 ****  ****    0  
@<TRIPOS>MOLECULE
Molecule Name_00275
    42    42     1     0     0
SMALL
NO_CHARGES
****
Generated from the CSD

@<TRIPOS>ATOM
     1 C1       3.6214  -0.3970  -0.0051   C.ar      1 1      0.0000
     2 C2       3.0188   0.8394   0.0638   C.ar      1 1      0.0000
     3 C3       1.6568   0.8991   0.2970   C.ar      1 1      0.0000
     4 C4       0.8972  -0.2543   0.4581   C.ar      1 1      0.0000
     5 C5       1.5471  -1.4813   0.3845   C.ar      1 1      0.0000
     6 C6       2.9080  -1.5644   0.1523   C.ar      1 1      0.0000
     7 H7       3.5999   1.7470  -0.0620   H         1 1      0.0000
     8 H8       1.1759   1.8695   0.3553   H         1 1      0.0000
     9 H9       0.9785  -2.3964   0.5120   H         1 1      0.0000
    10 H10      3.4028  -2.5284   0.0955   H         1 1      0.0000
    11 N11      5.0662  -0.4727  -0.2533   N.pl3     1 1      0.0000
    12 O12      5.5858  -1.5763  -0.3116   O.2       1 1      0.0000
    13 O13      5.6848   0.5712  -0.3905   O.2       1 1      0.0000
    14 CL3     -0.6103  -0.1806   0.7049   C.3       1 1      0.0000
    15 CL1     -1.3814  -1.0382  -0.3383   C.3       1 1      0.0000
    16 H16     -1.2666  -0.5761  -1.3262   H         1 1      0.0000
    17 H17     -0.9059  -2.0253  -0.3922   H         1 1      0.0000
    18 CL      -2.8825  -1.2447  -0.0693   C.3       1 1      0.0000
    19 CL2     -3.5538   0.1113   0.0493   C.3       1 1      0.0000
    20 H20     -4.6339   0.0020   0.1214   H         1 1      0.0000
    21 H21     -3.2065   0.6374   0.9361   H         1 1      0.0000
    22 H22     -3.3328   0.7284  -0.8191   H         1 1      0.0000
    23 OL2     -0.8579  -0.6433   2.0266   O.3       1 1      0.0000
    24 H24     -1.8239  -0.5694   2.2252   H         1 1      0.0000
    25 N25     -3.4928  -1.9646  -1.1561   N.3       1 1      0.0000
    26 H26     -3.9370  -2.7908  -0.7555   H         1 1      0.0000
    27 C27     -4.5162  -1.2597  -1.9300   C.3       1 1      0.0000
    28 H28     -4.1305  -0.3161  -2.3103   H         1 1      0.0000
    29 H29     -4.8402  -1.8597  -2.7778   H         1 1      0.0000
    30 H30     -5.3870  -1.0461  -1.3136   H         1 1      0.0000
    31 OL1     -3.0522  -1.9108   1.1762   O.3       1 1      0.0000
    32 H32     -4.0175  -2.0208   1.3613   H         1 1      0.0000
    33 CL4     -0.9660   1.3156   0.5946   C.2       1 1      0.0000
    34 C34     -1.3526   3.1162  -0.9003   C.3       1 1      0.0000
    35 H35     -0.8883   3.7442  -0.1300   H         1 1      0.0000
    36 H36     -0.9650   3.4407  -1.8738   H         1 1      0.0000
    37 OL3     -1.1602   2.0230   1.5445   O.2       1 1      0.0000
    38 OL4     -1.0283   1.7132  -0.6704   O.3       1 1      0.0000
    39 C39     -2.8249   3.2622  -0.8610   C.3       1 1      0.0000
    40 H40     -3.2190   2.9389   0.1002   H         1 1      0.0000
    41 H41     -3.1138   4.3000  -1.0140   H         1 1      0.0000
    42 H42     -3.2929   2.6620  -1.6384   H         1 1      0.0000
@<TRIPOS>BOND
     1     1     2   ar
     2     1     6   ar
     3     1    11    1
     4     2     3   ar
     5     2     7    1
     6     3     4   ar
     7     3     8    1
     8     4     5   ar
     9     4    14    1
    10     5     6   ar
    11     5     9    1
    12     6    10    1
    13    11    12    2
    14    11    13    2
    15    14    15    1
    16    14    23    1
    17    14    33    1
    18    15    16    1
    19    15    17    1
    20    15    18    1
    21    18    19    1
    22    18    25    1
    23    18    31    1
    24    19    20    1
    25    19    21    1
    26    19    22    1
    27    23    24    1
    28    25    26    1
    29    25    27    1
    30    27    28    1
    31    27    29    1
    32    27    30    1
    33    31    32    1
    34    33    37    2
    35    33    38    1
    36    34    35    1
    37    34    36    1
    38    34    38    1
    39    34    39    1
    40    39    40    1
    41    39    41    1
    42    39    42    1
@<TRIPOS>SUBSTRUCTURE
     1 1           1 GROUP             0 ****  ****    0  
@<TRIPOS>MOLECULE
Molecule Name_00276
    42    42     1     0     0
SMALL
NO_CHARGES
****
Generated from the CSD

@<TRIPOS>ATOM
     1 C1       3.5429  -0.2795  -0.0495   C.ar      1 1      0.0000
     2 C2       2.8160   0.7923  -0.5179   C.ar      1 1      0.0000
     3 C3       1.4508   0.8128  -0.2969   C.ar      1 1      0.0000
     4 C4       0.8100  -0.2194   0.3794   C.ar      1 1      0.0000
     5 C5       1.5830  -1.2803   0.8380   C.ar      1 1      0.0000
     6 C6       2.9495  -1.3212   0.6283   C.ar      1 1      0.0000
     7 H7       3.3037   1.6033  -1.0486   H         1 1      0.0000
     8 H8       0.8724   1.6551  -0.6605   H         1 1      0.0000
     9 H9       1.1085  -2.0959   1.3733   H         1 1      0.0000
    10 H10      3.5410  -2.1557   0.9899   H         1 1      0.0000
    11 N11      4.9923  -0.3126  -0.2793   N.pl3     1 1      0.0000
    12 O12      5.6228  -1.2697   0.1421   O.2       1 1      0.0000
    13 O13      5.5036   0.6185  -0.8816   O.2       1 1      0.0000
    14 CL3     -0.7016  -0.1950   0.6104   C.3       1 1      0.0000
    15 CL1     -1.4478  -0.9088  -0.5523   C.3       1 1      0.0000
    16 H16     -1.4463  -0.2485  -1.4280   H         1 1      0.0000
    17 H17     -0.8783  -1.8046  -0.8290   H         1 1      0.0000
    18 CL      -2.8989  -1.3342  -0.2665   C.3       1 1      0.0000
    19 CL2     -3.6927  -0.1172   0.1719   C.3       1 1      0.0000
    20 H20     -4.7521  -0.3540   0.2460   H         1 1      0.0000
    21 H21     -3.3550   0.2336   1.1449   H         1 1      0.0000
    22 H22     -3.5764   0.6965  -0.5409   H         1 1      0.0000
    23 OL2     -0.9622  -0.8373   1.8522   O.3       1 1      0.0000
    24 H24     -1.9258  -0.7659   2.0633   H         1 1      0.0000
    25 N25     -3.5068  -1.8743  -1.4541   N.3       1 1      0.0000
    26 H26     -2.9376  -2.6685  -1.7469   H         1 1      0.0000
    27 C27     -4.8850  -2.3540  -1.3373   C.3       1 1      0.0000
    28 H28     -5.5637  -1.5298  -1.1279   H         1 1      0.0000
    29 H29     -5.2066  -2.8317  -2.2604   H         1 1      0.0000
    30 H30     -4.9739  -3.0794  -0.5314   H         1 1      0.0000
    31 OL1     -2.9158  -2.2611   0.8126   O.3       1 1      0.0000
    32 H32     -3.8519  -2.4910   1.0337   H         1 1      0.0000
    33 CL4     -1.0734   1.2985   0.7009   C.2       1 1      0.0000
    34 C34     -1.8206   3.1924  -0.5162   C.3       1 1      0.0000
    35 H35     -2.4966   3.3817  -1.3591   H         1 1      0.0000
    36 H36     -2.3492   3.4695   0.4043   H         1 1      0.0000
    37 OL3     -1.0282   1.9329   1.7187   O.2       1 1      0.0000
    38 OL4     -1.4446   1.7841  -0.4775   O.3       1 1      0.0000
    39 C39     -0.5862   3.9963  -0.6593   C.3       1 1      0.0000
    40 H40     -0.0604   3.7358  -1.5755   H         1 1      0.0000
    41 H41     -0.8194   5.0585  -0.6927   H         1 1      0.0000
    42 H42      0.0862   3.8231   0.1783   H         1 1      0.0000
@<TRIPOS>BOND
     1     1     2   ar
     2     1     6   ar
     3     1    11    1
     4     2     3   ar
     5     2     7    1
     6     3     4   ar
     7     3     8    1
     8     4     5   ar
     9     4    14    1
    10     5     6   ar
    11     5     9    1
    12     6    10    1
    13    11    12    2
    14    11    13    2
    15    14    15    1
    16    14    23    1
    17    14    33    1
    18    15    16    1
    19    15    17    1
    20    15    18    1
    21    18    19    1
    22    18    25    1
    23    18    31    1
    24    19    20    1
    25    19    21    1
    26    19    22    1
    27    23    24    1
    28    25    26    1
    29    25    27    1
    30    27    28    1
    31    27    29    1
    32    27    30    1
    33    31    32    1
    34    33    37    2
    35    33    38    1
    36    34    35    1
    37    34    36    1
    38    34    38    1
    39    34    39    1
    40    39    40    1
    41    39    41    1
    42    39    42    1
@<TRIPOS>SUBSTRUCTURE
     1 1           1 GROUP             0 ****  ****    0  
@<TRIPOS>MOLECULE
Molecule Name_00277
    42    42     1     0     0
SMALL
NO_CHARGES
****
Generated from the CSD

@<TRIPOS>ATOM
     1 C1       3.4839  -0.3438  -0.0358   C.ar      1 1      0.0000
     2 C2       2.7467   0.6905  -0.5678   C.ar      1 1      0.0000
     3 C3       1.3863   0.7283  -0.3211   C.ar      1 1      0.0000
     4 C4       0.7604  -0.2501   0.4433   C.ar      1 1      0.0000
     5 C5       1.5436  -1.2743   0.9639   C.ar      1 1      0.0000
     6 C6       2.9055  -1.3316   0.7299   C.ar      1 1      0.0000
     7 H7       3.2227   1.4593  -1.1675   H         1 1      0.0000
     8 H8       0.7998   1.5415  -0.7346   H         1 1      0.0000
     9 H9       1.0808  -2.0474   1.5681   H         1 1      0.0000
    10 H10      3.5051  -2.1372   1.1406   H         1 1      0.0000
    11 N11      4.9284  -0.3949  -0.2921   N.pl3     1 1      0.0000
    12 O12      5.5683  -1.3183   0.1866   O.2       1 1      0.0000
    13 O13      5.4264   0.4883  -0.9726   O.2       1 1      0.0000
    14 CL3     -0.7462  -0.2076   0.7028   C.3       1 1      0.0000
    15 CL1     -1.5154  -1.0057  -0.3879   C.3       1 1      0.0000
    16 H16     -1.5330  -0.4124  -1.3101   H         1 1      0.0000
    17 H17     -0.9505  -1.9197  -0.6091   H         1 1      0.0000
    18 CL      -2.9596  -1.4086  -0.0411   C.3       1 1      0.0000
    19 CL2     -3.7468  -0.1619   0.3190   C.3       1 1      0.0000
    20 H20     -4.8055  -0.3907   0.4221   H         1 1      0.0000
    21 H21     -3.3972   0.2565   1.2605   H         1 1      0.0000
    22 H22     -3.6379   0.5988  -0.4512   H         1 1      0.0000
    23 OL2     -0.9808  -0.7552   1.9942   O.3       1 1      0.0000
    24 H24     -1.9397  -0.6665   2.2196   H         1 1      0.0000
    25 N25     -3.5904  -2.0382  -1.1714   N.3       1 1      0.0000
    26 H26     -4.5335  -2.2970  -0.8818   H         1 1      0.0000
    27 C27     -3.7198  -1.2398  -2.3916   C.3       1 1      0.0000
    28 H28     -2.7409  -0.9594  -2.7747   H         1 1      0.0000
    29 H29     -4.2389  -1.8006  -3.1661   H         1 1      0.0000
    30 H30     -4.2820  -0.3286  -2.1985   H         1 1      0.0000
    31 OL1     -2.9530  -2.2502   1.1058   O.3       1 1      0.0000
    32 H32     -3.8829  -2.4884   1.3440   H         1 1      0.0000
    33 CL4     -1.1174   1.2888   0.6890   C.2       1 1      0.0000
    34 C34     -1.8894   3.0874  -0.6509   C.3       1 1      0.0000
    35 H35     -2.5815   3.2139  -1.4925   H         1 1      0.0000
    36 H36     -2.4005   3.4325   0.2564   H         1 1      0.0000
    37 OL3     -1.0533   1.9970   1.6558   O.2       1 1      0.0000
    38 OL4     -1.5115   1.6856  -0.5148   O.3       1 1      0.0000
    39 C39     -0.6586   3.8776  -0.8771   C.3       1 1      0.0000
    40 H40     -0.1502   3.5494  -1.7813   H         1 1      0.0000
    41 H41     -0.8932   4.9345  -0.9848   H         1 1      0.0000
    42 H42      0.0299   3.7667  -0.0419   H         1 1      0.0000
@<TRIPOS>BOND
     1     1     2   ar
     2     1     6   ar
     3     1    11    1
     4     2     3   ar
     5     2     7    1
     6     3     4   ar
     7     3     8    1
     8     4     5   ar
     9     4    14    1
    10     5     6   ar
    11     5     9    1
    12     6    10    1
    13    11    12    2
    14    11    13    2
    15    14    15    1
    16    14    23    1
    17    14    33    1
    18    15    16    1
    19    15    17    1
    20    15    18    1
    21    18    19    1
    22    18    25    1
    23    18    31    1
    24    19    20    1
    25    19    21    1
    26    19    22    1
    27    23    24    1
    28    25    26    1
    29    25    27    1
    30    27    28    1
    31    27    29    1
    32    27    30    1
    33    31    32    1
    34    33    37    2
    35    33    38    1
    36    34    35    1
    37    34    36    1
    38    34    38    1
    39    34    39    1
    40    39    40    1
    41    39    41    1
    42    39    42    1
@<TRIPOS>SUBSTRUCTURE
     1 1           1 GROUP             0 ****  ****    0  
@<TRIPOS>MOLECULE
Molecule Name_00278
    42    42     1     0     0
SMALL
NO_CHARGES
****
Generated from the CSD

@<TRIPOS>ATOM
     1 C1       3.4390  -0.3715  -0.0510   C.ar      1 1      0.0000
     2 C2       2.7451   0.7114  -0.5434   C.ar      1 1      0.0000
     3 C3       1.3847   0.7885  -0.3062   C.ar      1 1      0.0000
     4 C4       0.7162  -0.1983   0.4098   C.ar      1 1      0.0000
     5 C5       1.4564  -1.2722   0.8916   C.ar      1 1      0.0000
     6 C6       2.8175  -1.3695   0.6662   C.ar      1 1      0.0000
     7 H7       3.2546   1.4872  -1.1052   H         1 1      0.0000
     8 H8       0.8323   1.6399  -0.6887   H         1 1      0.0000
     9 H9       0.9600  -2.0531   1.4578   H         1 1      0.0000
    10 H10      3.3834  -2.2136   1.0463   H         1 1      0.0000
    11 N11      4.8831  -0.4646  -0.2976   N.pl3     1 1      0.0000
    12 O12      5.4842  -1.4308   0.1455   O.2       1 1      0.0000
    13 O13      5.4195   0.4282  -0.9350   O.2       1 1      0.0000
    14 CL3     -0.7903  -0.1115   0.6588   C.3       1 1      0.0000
    15 CL1     -1.5776  -0.8329  -0.4718   C.3       1 1      0.0000
    16 H16     -1.5641  -0.2003  -1.3675   H         1 1      0.0000
    17 H17     -1.0445  -1.7570  -0.7275   H         1 1      0.0000
    18 CL      -3.0389  -1.1962  -0.1546   C.3       1 1      0.0000
    19 CL2     -3.7827   0.0619   0.2544   C.3       1 1      0.0000
    20 H20     -4.8500  -0.1314   0.3394   H         1 1      0.0000
    21 H21     -3.4264   0.4251   1.2162   H         1 1      0.0000
    22 H22     -3.6387   0.8512  -0.4804   H         1 1      0.0000
    23 OL2     -1.0571  -0.7053   1.9232   O.3       1 1      0.0000
    24 H24     -2.0144  -0.5919   2.1441   H         1 1      0.0000
    25 N25     -3.6818  -1.7510  -1.3169   N.3       1 1      0.0000
    26 H26     -3.6578  -1.0346  -2.0426   H         1 1      0.0000
    27 C27     -3.0918  -2.9622  -1.8896   C.3       1 1      0.0000
    28 H28     -3.0877  -3.7706  -1.1615   H         1 1      0.0000
    29 H29     -3.6563  -3.2921  -2.7593   H         1 1      0.0000
    30 H30     -2.0651  -2.7810  -2.2007   H         1 1      0.0000
    31 OL1     -3.0746  -2.0875   0.9536   O.3       1 1      0.0000
    32 H32     -4.0149  -2.3010   1.1736   H         1 1      0.0000
    33 CL4     -1.1066   1.3967   0.7071   C.2       1 1      0.0000
    34 C34     -1.7990   3.2788  -0.5596   C.3       1 1      0.0000
    35 H35     -2.4777   3.4670  -1.4007   H         1 1      0.0000
    36 H36     -2.3062   3.6029   0.3575   H         1 1      0.0000
    37 OL3     -1.0262   2.0597   1.7043   O.2       1 1      0.0000
    38 OL4     -1.4739   1.8595  -0.4816   O.3       1 1      0.0000
    39 C39     -0.5380   4.0322  -0.7408   C.3       1 1      0.0000
    40 H40     -0.0330   3.7248  -1.6542   H         1 1      0.0000
    41 H41     -0.7329   5.1007  -0.8044   H         1 1      0.0000
    42 H42      0.1375   3.8600   0.0944   H         1 1      0.0000
@<TRIPOS>BOND
     1     1     2   ar
     2     1     6   ar
     3     1    11    1
     4     2     3   ar
     5     2     7    1
     6     3     4   ar
     7     3     8    1
     8     4     5   ar
     9     4    14    1
    10     5     6   ar
    11     5     9    1
    12     6    10    1
    13    11    12    2
    14    11    13    2
    15    14    15    1
    16    14    23    1
    17    14    33    1
    18    15    16    1
    19    15    17    1
    20    15    18    1
    21    18    19    1
    22    18    25    1
    23    18    31    1
    24    19    20    1
    25    19    21    1
    26    19    22    1
    27    23    24    1
    28    25    26    1
    29    25    27    1
    30    27    28    1
    31    27    29    1
    32    27    30    1
    33    31    32    1
    34    33    37    2
    35    33    38    1
    36    34    35    1
    37    34    36    1
    38    34    38    1
    39    34    39    1
    40    39    40    1
    41    39    41    1
    42    39    42    1
@<TRIPOS>SUBSTRUCTURE
     1 1           1 GROUP             0 ****  ****    0  
@<TRIPOS>MOLECULE
Molecule Name_00279
    42    42     1     0     0
SMALL
NO_CHARGES
****
Generated from the CSD

@<TRIPOS>ATOM
     1 C1       2.9730  -0.8175  -0.1472   C.ar      1 1      0.0000
     2 C2       2.1630  -1.6537   0.5885   C.ar      1 1      0.0000
     3 C3       0.8707  -1.2465   0.8665   C.ar      1 1      0.0000
     4 C4       0.3849  -0.0216   0.4226   C.ar      1 1      0.0000
     5 C5       1.2358   0.7895  -0.3199   C.ar      1 1      0.0000
     6 C6       2.5315   0.4023  -0.6096   C.ar      1 1      0.0000
     7 H7       2.5305  -2.6112   0.9424   H         1 1      0.0000
     8 H8       0.2263  -1.9011   1.4430   H         1 1      0.0000
     9 H9       0.8797   1.7479  -0.6828   H         1 1      0.0000
    10 H10      3.1859   1.0454  -1.1887   H         1 1      0.0000
    11 N11      4.3468  -1.2386  -0.4472   N.pl3     1 1      0.0000
    12 O12      4.7232  -2.3229  -0.0303   O.2       1 1      0.0000
    13 O13      5.0525  -0.4861  -1.1006   O.2       1 1      0.0000
    14 CL3     -1.0418   0.4266   0.7432   C.3       1 1      0.0000
    15 CL1     -2.0194   0.0035  -0.3898   C.3       1 1      0.0000
    16 H16     -2.9209   0.6246  -0.3254   H         1 1      0.0000
    17 H17     -1.5472   0.2280  -1.3542   H         1 1      0.0000
    18 CL      -2.4467  -1.4748  -0.3993   C.3       1 1      0.0000
    19 CL2     -3.4418  -1.6937  -1.5242   C.3       1 1      0.0000
    20 H20     -3.7605  -2.7334  -1.5603   H         1 1      0.0000
    21 H21     -4.3246  -1.0733  -1.3844   H         1 1      0.0000
    22 H22     -2.9990  -1.4414  -2.4854   H         1 1      0.0000
    23 OL2     -1.4145  -0.1623   1.9829   O.3       1 1      0.0000
    24 H24     -2.3213   0.1435   2.2325   H         1 1      0.0000
    25 N25     -1.3073  -2.3253  -0.6237   N.3       1 1      0.0000
    26 H26     -1.6445  -3.2878  -0.6066   H         1 1      0.0000
    27 C27     -0.5810  -2.1471  -1.8822   C.3       1 1      0.0000
    28 H28     -0.1928  -1.1340  -1.9633   H         1 1      0.0000
    29 H29      0.2575  -2.8374  -1.9447   H         1 1      0.0000
    30 H30     -1.2339  -2.3290  -2.7333   H         1 1      0.0000
    31 OL1     -3.1124  -1.7823   0.8197   O.3       1 1      0.0000
    32 H32     -3.4096  -2.7254   0.8031   H         1 1      0.0000
    33 CL4     -0.9613   1.9592   0.8903   C.2       1 1      0.0000
    34 C34     -1.2148   4.0350  -0.2292   C.3       1 1      0.0000
    35 H35     -0.3933   4.3830   0.4092   H         1 1      0.0000
    36 H36     -1.0382   4.4214  -1.2406   H         1 1      0.0000
    37 OL3     -0.6654   2.5128   1.9132   O.2       1 1      0.0000
    38 OL4     -1.2577   2.5776  -0.2463   O.3       1 1      0.0000
    39 C39     -2.5102   4.5292   0.2887   C.3       1 1      0.0000
    40 H40     -2.6891   4.1595   1.2962   H         1 1      0.0000
    41 H41     -2.5237   5.6166   0.3194   H         1 1      0.0000
    42 H42     -3.3304   4.1977  -0.3446   H         1 1      0.0000
@<TRIPOS>BOND
     1     1     2   ar
     2     1     6   ar
     3     1    11    1
     4     2     3   ar
     5     2     7    1
     6     3     4   ar
     7     3     8    1
     8     4     5   ar
     9     4    14    1
    10     5     6   ar
    11     5     9    1
    12     6    10    1
    13    11    12    2
    14    11    13    2
    15    14    15    1
    16    14    23    1
    17    14    33    1
    18    15    16    1
    19    15    17    1
    20    15    18    1
    21    18    19    1
    22    18    25    1
    23    18    31    1
    24    19    20    1
    25    19    21    1
    26    19    22    1
    27    23    24    1
    28    25    26    1
    29    25    27    1
    30    27    28    1
    31    27    29    1
    32    27    30    1
    33    31    32    1
    34    33    37    2
    35    33    38    1
    36    34    35    1
    37    34    36    1
    38    34    38    1
    39    34    39    1
    40    39    40    1
    41    39    41    1
    42    39    42    1
@<TRIPOS>SUBSTRUCTURE
     1 1           1 GROUP             0 ****  ****    0  
@<TRIPOS>MOLECULE
Molecule Name_00280
    42    42     1     0     0
SMALL
NO_CHARGES
****
Generated from the CSD

@<TRIPOS>ATOM
     1 C1       2.8882  -0.6564  -0.1758   C.ar      1 1      0.0000
     2 C2       2.1350  -1.5628   0.5367   C.ar      1 1      0.0000
     3 C3       0.8264  -1.2379   0.8449   C.ar      1 1      0.0000
     4 C4       0.2686  -0.0259   0.4537   C.ar      1 1      0.0000
     5 C5       1.0639   0.8580  -0.2672   C.ar      1 1      0.0000
     6 C6       2.3747   0.5537  -0.5863   C.ar      1 1      0.0000
     7 H7       2.5589  -2.5113   0.8495   H         1 1      0.0000
     8 H8       0.2265  -1.9481   1.4035   H         1 1      0.0000
     9 H9       0.6513   1.8084  -0.5890   H         1 1      0.0000
    10 H10      2.9852   1.2530  -1.1480   H         1 1      0.0000
    11 N11      4.2787  -0.9900  -0.5076   N.pl3     1 1      0.0000
    12 O12      4.7193  -2.0668  -0.1367   O.2       1 1      0.0000
    13 O13      4.9335  -0.1759  -1.1398   O.2       1 1      0.0000
    14 CL3     -1.1758   0.3310   0.8076   C.3       1 1      0.0000
    15 CL1     -2.1443  -0.1024  -0.3294   C.3       1 1      0.0000
    16 H16     -3.0774   0.4654  -0.2310   H         1 1      0.0000
    17 H17     -1.6982   0.1836  -1.2899   H         1 1      0.0000
    18 CL      -2.4906  -1.6006  -0.3904   C.3       1 1      0.0000
    19 CL2     -3.4875  -1.8315  -1.5112   C.3       1 1      0.0000
    20 H20     -3.7496  -2.8850  -1.5833   H         1 1      0.0000
    21 H21     -4.4007  -1.2662  -1.3377   H         1 1      0.0000
    22 H22     -3.0721  -1.5194  -2.4672   H         1 1      0.0000
    23 OL2     -1.4990  -0.3234   2.0281   O.3       1 1      0.0000
    24 H24     -2.4177  -0.0776   2.2996   H         1 1      0.0000
    25 N25     -1.3097  -2.3782  -0.6601   N.3       1 1      0.0000
    26 H26     -1.5937  -3.3577  -0.6759   H         1 1      0.0000
    27 C27     -0.6114  -2.1133  -1.9192   C.3       1 1      0.0000
    28 H28     -0.2800  -1.0781  -1.9661   H         1 1      0.0000
    29 H29      0.2626  -2.7538  -2.0177   H         1 1      0.0000
    30 H30     -1.2650  -2.2988  -2.7691   H         1 1      0.0000
    31 OL1     -3.1219  -1.9896   0.8237   O.3       1 1      0.0000
    32 H32     -3.3675  -2.9463   0.7746   H         1 1      0.0000
    33 CL4     -1.1769   1.8591   1.0121   C.2       1 1      0.0000
    34 C34     -1.5582   3.9584  -0.0244   C.3       1 1      0.0000
    35 H35     -2.2397   4.3592  -0.7849   H         1 1      0.0000
    36 H36     -1.9269   4.2806   0.9573   H         1 1      0.0000
    37 OL3     -0.8978   2.3894   2.0519   O.2       1 1      0.0000
    38 OL4     -1.5220   2.5024  -0.0966   O.3       1 1      0.0000
    39 C39     -0.1861   4.4661  -0.2478   C.3       1 1      0.0000
    40 H40      0.1841   4.1603  -1.2241   H         1 1      0.0000
    41 H41     -0.1649   5.5530  -0.2025   H         1 1      0.0000
    42 H42      0.4952   4.0821   0.5086   H         1 1      0.0000
@<TRIPOS>BOND
     1     1     2   ar
     2     1     6   ar
     3     1    11    1
     4     2     3   ar
     5     2     7    1
     6     3     4   ar
     7     3     8    1
     8     4     5   ar
     9     4    14    1
    10     5     6   ar
    11     5     9    1
    12     6    10    1
    13    11    12    2
    14    11    13    2
    15    14    15    1
    16    14    23    1
    17    14    33    1
    18    15    16    1
    19    15    17    1
    20    15    18    1
    21    18    19    1
    22    18    25    1
    23    18    31    1
    24    19    20    1
    25    19    21    1
    26    19    22    1
    27    23    24    1
    28    25    26    1
    29    25    27    1
    30    27    28    1
    31    27    29    1
    32    27    30    1
    33    31    32    1
    34    33    37    2
    35    33    38    1
    36    34    35    1
    37    34    36    1
    38    34    38    1
    39    34    39    1
    40    39    40    1
    41    39    41    1
    42    39    42    1
@<TRIPOS>SUBSTRUCTURE
     1 1           1 GROUP             0 ****  ****    0  
@<TRIPOS>MOLECULE
Molecule Name_00281
    42    42     1     0     0
SMALL
NO_CHARGES
****
Generated from the CSD

@<TRIPOS>ATOM
     1 C1       2.8395  -0.7934  -0.1806   C.ar      1 1      0.0000
     2 C2       2.2831  -1.3042   0.9710   C.ar      1 1      0.0000
     3 C3       1.0089  -0.8996   1.3256   C.ar      1 1      0.0000
     4 C4       0.2925   0.0043   0.5491   C.ar      1 1      0.0000
     5 C5       0.8912   0.4920  -0.6072   C.ar      1 1      0.0000
     6 C6       2.1641   0.1010  -0.9809   C.ar      1 1      0.0000
     7 H7       2.8323  -2.0088   1.5867   H         1 1      0.0000
     8 H8       0.5633  -1.2998   2.2298   H         1 1      0.0000
     9 H9       0.3517   1.1944  -1.2337   H         1 1      0.0000
    10 H10      2.6207   0.4904  -1.8849   H         1 1      0.0000
    11 N11      4.1918  -1.2147  -0.5663   N.pl3     1 1      0.0000
    12 O12      4.6713  -0.7529  -1.5900   O.2       1 1      0.0000
    13 O13      4.7775  -2.0084   0.1536   O.2       1 1      0.0000
    14 CL3     -1.1118   0.4553   0.9535   C.3       1 1      0.0000
    15 CL1     -2.1532   0.0485  -0.1274   C.3       1 1      0.0000
    16 H16     -3.1550   0.3089   0.2349   H         1 1      0.0000
    17 H17     -1.9729   0.6533  -1.0247   H         1 1      0.0000
    18 CL      -2.1559  -1.4334  -0.5423   C.3       1 1      0.0000
    19 CL2     -3.3379  -1.6870  -1.4598   C.3       1 1      0.0000
    20 H20     -3.5271  -2.7538  -1.5593   H         1 1      0.0000
    21 H21     -4.2381  -1.2183  -1.0677   H         1 1      0.0000
    22 H22     -3.1497  -1.2822  -2.4521   H         1 1      0.0000
    23 OL2     -1.4177  -0.1449   2.2059   O.3       1 1      0.0000
    24 H24     -2.3077   0.1621   2.5089   H         1 1      0.0000
    25 N25     -0.9467  -1.7580  -1.2525   N.3       1 1      0.0000
    26 H26     -0.2764  -2.0972  -0.5626   H         1 1      0.0000
    27 C27     -1.0418  -2.7794  -2.2969   C.3       1 1      0.0000
    28 H28     -1.5323  -2.3810  -3.1825   H         1 1      0.0000
    29 H29     -0.0528  -3.1290  -2.5856   H         1 1      0.0000
    30 H30     -1.6154  -3.6355  -1.9480   H         1 1      0.0000
    31 OL1     -2.3339  -2.2468   0.6112   O.3       1 1      0.0000
    32 H32     -2.3612  -3.1980   0.3416   H         1 1      0.0000
    33 CL4     -1.0157   1.9860   1.1116   C.2       1 1      0.0000
    34 C34     -0.9838   4.0604  -0.0382   C.3       1 1      0.0000
    35 H35     -0.2924   4.3887   0.7477   H         1 1      0.0000
    36 H36     -0.6020   4.4344  -0.9962   H         1 1      0.0000
    37 OL3     -0.9083   2.5378   2.1720   O.2       1 1      0.0000
    38 OL4     -1.0662   2.6047  -0.0617   O.3       1 1      0.0000
    39 C39     -2.3399   4.5957   0.2166   C.3       1 1      0.0000
    40 H40     -2.7227   4.2385   1.1703   H         1 1      0.0000
    41 H41     -2.3266   5.6833   0.2427   H         1 1      0.0000
    42 H42     -3.0306   4.2839  -0.5641   H         1 1      0.0000
@<TRIPOS>BOND
     1     1     2   ar
     2     1     6   ar
     3     1    11    1
     4     2     3   ar
     5     2     7    1
     6     3     4   ar
     7     3     8    1
     8     4     5   ar
     9     4    14    1
    10     5     6   ar
    11     5     9    1
    12     6    10    1
    13    11    12    2
    14    11    13    2
    15    14    15    1
    16    14    23    1
    17    14    33    1
    18    15    16    1
    19    15    17    1
    20    15    18    1
    21    18    19    1
    22    18    25    1
    23    18    31    1
    24    19    20    1
    25    19    21    1
    26    19    22    1
    27    23    24    1
    28    25    26    1
    29    25    27    1
    30    27    28    1
    31    27    29    1
    32    27    30    1
    33    31    32    1
    34    33    37    2
    35    33    38    1
    36    34    35    1
    37    34    36    1
    38    34    38    1
    39    34    39    1
    40    39    40    1
    41    39    41    1
    42    39    42    1
@<TRIPOS>SUBSTRUCTURE
     1 1           1 GROUP             0 ****  ****    0  
@<TRIPOS>MOLECULE
Molecule Name_00282
    42    42     1     0     0
SMALL
NO_CHARGES
****
Generated from the CSD

@<TRIPOS>ATOM
     1 C1       2.7514  -0.6292  -0.2136   C.ar      1 1      0.0000
     2 C2       2.2420  -1.1822   0.9402   C.ar      1 1      0.0000
     3 C3       0.9512  -0.8567   1.3157   C.ar      1 1      0.0000
     4 C4       0.1721   0.0102   0.5576   C.ar      1 1      0.0000
     5 C5       0.7250   0.5426  -0.6018   C.ar      1 1      0.0000
     6 C6       2.0135   0.2309  -0.9961   C.ar      1 1      0.0000
     7 H7       2.8402  -1.8586   1.5417   H         1 1      0.0000
     8 H8       0.5425  -1.2906   2.2217   H         1 1      0.0000
     9 H9       0.1364   1.2175  -1.2142   H         1 1      0.0000
    10 H10      2.4337   0.6546  -1.9023   H         1 1      0.0000
    11 N11      4.1206  -0.9665  -0.6213   N.pl3     1 1      0.0000
    12 O12      4.5579  -0.4681  -1.6468   O.2       1 1      0.0000
    13 O13      4.7620  -1.7305   0.0830   O.2       1 1      0.0000
    14 CL3     -1.2506   0.3738   0.9849   C.3       1 1      0.0000
    15 CL1     -2.2811  -0.0841  -0.0860   C.3       1 1      0.0000
    16 H16     -3.2914   0.1134   0.2921   H         1 1      0.0000
    17 H17     -2.1491   0.5382  -0.9797   H         1 1      0.0000
    18 CL      -2.2021  -1.5598  -0.5151   C.3       1 1      0.0000
    19 CL2     -3.3798  -1.8746  -1.4193   C.3       1 1      0.0000
    20 H20     -3.5071  -2.9498  -1.5266   H         1 1      0.0000
    21 H21     -4.3004  -1.4634  -1.0107   H         1 1      0.0000
    22 H22     -3.2295  -1.4506  -2.4100   H         1 1      0.0000
    23 OL2     -1.5032  -0.2545   2.2354   O.3       1 1      0.0000
    24 H24     -2.4055  -0.0033   2.5531   H         1 1      0.0000
    25 N25     -0.9858  -1.8061  -1.2445   N.3       1 1      0.0000
    26 H26     -0.2873  -2.1113  -0.5668   H         1 1      0.0000
    27 C27     -1.0350  -2.8220  -2.2974   C.3       1 1      0.0000
    28 H28     -1.5604  -2.4454  -3.1725   H         1 1      0.0000
    29 H29     -0.0312  -3.1101  -2.6026   H         1 1      0.0000
    30 H30     -1.5524  -3.7136  -1.9492   H         1 1      0.0000
    31 OL1     -2.3160  -2.3926   0.6326   O.3       1 1      0.0000
    32 H32     -2.2909  -3.3412   0.3542   H         1 1      0.0000
    33 CL4     -1.2427   1.9060   1.1566   C.2       1 1      0.0000
    34 C34     -1.3490   3.9889   0.0266   C.3       1 1      0.0000
    35 H35     -1.8571   4.3896  -0.8592   H         1 1      0.0000
    36 H36     -1.8903   4.3452   0.9117   H         1 1      0.0000
    37 OL3     -1.1534   2.4538   2.2207   O.2       1 1      0.0000
    38 OL4     -1.3458   2.5311  -0.0099   O.3       1 1      0.0000
    39 C39      0.0559   4.4529   0.0646   C.3       1 1      0.0000
    40 H40      0.5983   4.1131  -0.8152   H         1 1      0.0000
    41 H41      0.1025   5.5396   0.0927   H         1 1      0.0000
    42 H42      0.5652   4.0689   0.9460   H         1 1      0.0000
@<TRIPOS>BOND
     1     1     2   ar
     2     1     6   ar
     3     1    11    1
     4     2     3   ar
     5     2     7    1
     6     3     4   ar
     7     3     8    1
     8     4     5   ar
     9     4    14    1
    10     5     6   ar
    11     5     9    1
    12     6    10    1
    13    11    12    2
    14    11    13    2
    15    14    15    1
    16    14    23    1
    17    14    33    1
    18    15    16    1
    19    15    17    1
    20    15    18    1
    21    18    19    1
    22    18    25    1
    23    18    31    1
    24    19    20    1
    25    19    21    1
    26    19    22    1
    27    23    24    1
    28    25    26    1
    29    25    27    1
    30    27    28    1
    31    27    29    1
    32    27    30    1
    33    31    32    1
    34    33    37    2
    35    33    38    1
    36    34    35    1
    37    34    36    1
    38    34    38    1
    39    34    39    1
    40    39    40    1
    41    39    41    1
    42    39    42    1
@<TRIPOS>SUBSTRUCTURE
     1 1           1 GROUP             0 ****  ****    0  
@<TRIPOS>MOLECULE
Molecule Name_00283
    42    42     1     0     0
SMALL
NO_CHARGES
****
Generated from the CSD

@<TRIPOS>ATOM
     1 C1       3.6056  -0.3120  -0.0396   C.ar      1 1      0.0000
     2 C2       3.0327  -1.4092   0.5642   C.ar      1 1      0.0000
     3 C3       1.6681  -1.4026   0.7897   C.ar      1 1      0.0000
     4 C4       0.8776  -0.3191   0.4233   C.ar      1 1      0.0000
     5 C5       1.4970   0.7661  -0.1868   C.ar      1 1      0.0000
     6 C6       2.8598   0.7808  -0.4220   C.ar      1 1      0.0000
     7 H7       3.6387  -2.2604   0.8566   H         1 1      0.0000
     8 H8       1.2097  -2.2644   1.2624   H         1 1      0.0000
     9 H9       0.9022   1.6221  -0.4873   H         1 1      0.0000
    10 H10      3.3311   1.6346  -0.8975   H         1 1      0.0000
    11 N11      5.0532  -0.3073  -0.2829   N.pl3     1 1      0.0000
    12 O12      5.7006  -1.2837   0.0617   O.2       1 1      0.0000
    13 O13      5.5462   0.6728  -0.8192   O.2       1 1      0.0000
    14 CL3     -0.6290  -0.3145   0.6858   C.3       1 1      0.0000
    15 CL1     -1.3977  -0.9485  -0.5081   C.3       1 1      0.0000
    16 H16     -1.1788  -0.3697  -1.4136   H         1 1      0.0000
    17 H17     -1.0040  -1.9589  -0.6741   H         1 1      0.0000
    18 CL      -2.9254  -1.0503  -0.3534   C.3       1 1      0.0000
    19 CL2     -3.5594   0.2322  -0.8603   C.3       1 1      0.0000
    20 H20     -4.6172   0.0839  -1.0672   H         1 1      0.0000
    21 H21     -3.4664   1.0262  -0.1224   H         1 1      0.0000
    22 H22     -3.0778   0.5640  -1.7778   H         1 1      0.0000
    23 OL2     -0.8638  -1.0414   1.8854   O.3       1 1      0.0000
    24 H24     -1.8293  -1.0206   2.0987   H         1 1      0.0000
    25 N25     -3.4362  -2.1510  -1.1276   N.3       1 1      0.0000
    26 H26     -2.9612  -2.9924  -0.8008   H         1 1      0.0000
    27 C27     -4.8746  -2.4111  -1.0466   C.3       1 1      0.0000
    28 H28     -5.4355  -1.6454  -1.5784   H         1 1      0.0000
    29 H29     -5.1174  -3.3761  -1.4865   H         1 1      0.0000
    30 H30     -5.2076  -2.4173  -0.0109   H         1 1      0.0000
    31 OL1     -3.2540  -1.1678   1.0258   O.3       1 1      0.0000
    32 H32     -4.2362  -1.1267   1.1343   H         1 1      0.0000
    33 CL4     -1.0007   1.1683   0.8862   C.2       1 1      0.0000
    34 C34     -1.5599   3.1968  -0.2086   C.3       1 1      0.0000
    35 H35     -2.4870   3.3277   0.3631   H         1 1      0.0000
    36 H36     -0.7715   3.7661   0.2990   H         1 1      0.0000
    37 OL3     -1.0936   1.6891   1.9635   O.2       1 1      0.0000
    38 OL4     -1.2015   1.7848  -0.2721   O.3       1 1      0.0000
    39 C39     -1.7378   3.6908  -1.5924   C.3       1 1      0.0000
    40 H40     -2.5257   3.1389  -2.1007   H         1 1      0.0000
    41 H41     -2.0073   4.7449  -1.5940   H         1 1      0.0000
    42 H42     -0.8196   3.5748  -2.1644   H         1 1      0.0000
@<TRIPOS>BOND
     1     1     2   ar
     2     1     6   ar
     3     1    11    1
     4     2     3   ar
     5     2     7    1
     6     3     4   ar
     7     3     8    1
     8     4     5   ar
     9     4    14    1
    10     5     6   ar
    11     5     9    1
    12     6    10    1
    13    11    12    2
    14    11    13    2
    15    14    15    1
    16    14    23    1
    17    14    33    1
    18    15    16    1
    19    15    17    1
    20    15    18    1
    21    18    19    1
    22    18    25    1
    23    18    31    1
    24    19    20    1
    25    19    21    1
    26    19    22    1
    27    23    24    1
    28    25    26    1
    29    25    27    1
    30    27    28    1
    31    27    29    1
    32    27    30    1
    33    31    32    1
    34    33    37    2
    35    33    38    1
    36    34    35    1
    37    34    36    1
    38    34    38    1
    39    34    39    1
    40    39    40    1
    41    39    41    1
    42    39    42    1
@<TRIPOS>SUBSTRUCTURE
     1 1           1 GROUP             0 ****  ****    0  
@<TRIPOS>MOLECULE
Molecule Name_00284
    42    42     1     0     0
SMALL
NO_CHARGES
****
Generated from the CSD

@<TRIPOS>ATOM
     1 C1       3.5239  -0.3940  -0.0309   C.ar      1 1      0.0000
     2 C2       2.9482  -1.4295   0.6713   C.ar      1 1      0.0000
     3 C3       1.5905  -1.3787   0.9302   C.ar      1 1      0.0000
     4 C4       0.8096  -0.3115   0.5004   C.ar      1 1      0.0000
     5 C5       1.4313   0.7105  -0.2083   C.ar      1 1      0.0000
     6 C6       2.7874   0.6801  -0.4785   C.ar      1 1      0.0000
     7 H7       3.5468  -2.2671   1.0139   H         1 1      0.0000
     8 H8       1.1299  -2.1920   1.4803   H         1 1      0.0000
     9 H9       0.8438   1.5522  -0.5597   H         1 1      0.0000
    10 H10      3.2607   1.4850  -1.0311   H         1 1      0.0000
    11 N11      4.9643  -0.4367  -0.3105   N.pl3     1 1      0.0000
    12 O12      5.6034  -1.3958   0.0929   O.2       1 1      0.0000
    13 O13      5.4598   0.4889  -0.9342   O.2       1 1      0.0000
    14 CL3     -0.6891  -0.2571   0.7999   C.3       1 1      0.0000
    15 CL1     -1.5006  -0.9667  -0.3209   C.3       1 1      0.0000
    16 H16     -1.2884  -0.4706  -1.2757   H         1 1      0.0000
    17 H17     -1.1360  -1.9974  -0.4106   H         1 1      0.0000
    18 CL      -3.0264  -1.0146  -0.1262   C.3       1 1      0.0000
    19 CL2     -3.6404   0.2357  -0.7289   C.3       1 1      0.0000
    20 H20     -4.6963   0.0825  -0.9421   H         1 1      0.0000
    21 H21     -3.5513   1.0772  -0.0451   H         1 1      0.0000
    22 H22     -3.1418   0.5004  -1.6590   H         1 1      0.0000
    23 OL2     -0.9043  -0.8837   2.0583   O.3       1 1      0.0000
    24 H24     -1.8632  -0.8275   2.2937   H         1 1      0.0000
    25 N25     -3.5815  -2.1641  -0.7916   N.3       1 1      0.0000
    26 H26     -4.5867  -2.1530  -0.6191   H         1 1      0.0000
    27 C27     -3.3956  -2.2484  -2.2412   C.3       1 1      0.0000
    28 H28     -2.3375  -2.2644  -2.4941   H         1 1      0.0000
    29 H29     -3.8522  -3.1533  -2.6366   H         1 1      0.0000
    30 H30     -3.8501  -1.3942  -2.7387   H         1 1      0.0000
    31 OL1     -3.3260  -1.0046   1.2644   O.3       1 1      0.0000
    32 H32     -4.3071  -1.0096   1.3893   H         1 1      0.0000
    33 CL4     -1.0291   1.2439   0.8931   C.2       1 1      0.0000
    34 C34     -1.5863   3.1908  -0.3421   C.3       1 1      0.0000
    35 H35     -2.4933   3.3841   0.2439   H         1 1      0.0000
    36 H36     -0.7733   3.7827   0.0962   H         1 1      0.0000
    37 OL3     -1.0806   1.8493   1.9281   O.2       1 1      0.0000
    38 OL4     -1.2541   1.7714  -0.3041   O.3       1 1      0.0000
    39 C39     -1.7973   3.5780  -1.7549   C.3       1 1      0.0000
    40 H40     -2.6094   3.0033  -2.1951   H         1 1      0.0000
    41 H41     -2.0485   4.6338  -1.8320   H         1 1      0.0000
    42 H42     -0.8988   3.3997  -2.3420   H         1 1      0.0000
@<TRIPOS>BOND
     1     1     2   ar
     2     1     6   ar
     3     1    11    1
     4     2     3   ar
     5     2     7    1
     6     3     4   ar
     7     3     8    1
     8     4     5   ar
     9     4    14    1
    10     5     6   ar
    11     5     9    1
    12     6    10    1
    13    11    12    2
    14    11    13    2
    15    14    15    1
    16    14    23    1
    17    14    33    1
    18    15    16    1
    19    15    17    1
    20    15    18    1
    21    18    19    1
    22    18    25    1
    23    18    31    1
    24    19    20    1
    25    19    21    1
    26    19    22    1
    27    23    24    1
    28    25    26    1
    29    25    27    1
    30    27    28    1
    31    27    29    1
    32    27    30    1
    33    31    32    1
    34    33    37    2
    35    33    38    1
    36    34    35    1
    37    34    36    1
    38    34    38    1
    39    34    39    1
    40    39    40    1
    41    39    41    1
    42    39    42    1
@<TRIPOS>SUBSTRUCTURE
     1 1           1 GROUP             0 ****  ****    0  
@<TRIPOS>MOLECULE
Molecule Name_00285
    42    42     1     0     0
SMALL
NO_CHARGES
****
Generated from the CSD

@<TRIPOS>ATOM
     1 C1       3.5072  -0.3970  -0.0545   C.ar      1 1      0.0000
     2 C2       2.8916  -1.4812   0.5305   C.ar      1 1      0.0000
     3 C3       1.5282  -1.4254   0.7558   C.ar      1 1      0.0000
     4 C4       0.7807  -0.3059   0.4077   C.ar      1 1      0.0000
     5 C5       1.4422   0.7645  -0.1838   C.ar      1 1      0.0000
     6 C6       2.8048   0.7302  -0.4185   C.ar      1 1      0.0000
     7 H7       3.4638  -2.3601   0.8086   H         1 1      0.0000
     8 H8       1.0362  -2.2766   1.2137   H         1 1      0.0000
     9 H9       0.8814   1.6480  -0.4699   H         1 1      0.0000
    10 H10      3.3093   1.5730  -0.8793   H         1 1      0.0000
    11 N11      4.9541  -0.4444  -0.2974   N.pl3     1 1      0.0000
    12 O12      5.5628  -1.4510   0.0307   O.2       1 1      0.0000
    13 O13      5.4853   0.5247  -0.8169   O.2       1 1      0.0000
    14 CL3     -0.7249  -0.2473   0.6699   C.3       1 1      0.0000
    15 CL1     -1.5166  -0.8306  -0.5348   C.3       1 1      0.0000
    16 H16     -1.2674  -0.2513  -1.4321   H         1 1      0.0000
    17 H17     -1.1689  -1.8558  -0.7119   H         1 1      0.0000
    18 CL      -3.0480  -0.8640  -0.3871   C.3       1 1      0.0000
    19 CL2     -3.6204   0.4518  -0.8816   C.3       1 1      0.0000
    20 H20     -4.6499   0.3254  -1.2100   H         1 1      0.0000
    21 H21     -3.6061   1.1998  -0.0916   H         1 1      0.0000
    22 H22     -3.0416   0.8333  -1.7201   H         1 1      0.0000
    23 OL2     -0.9888  -0.9846   1.8570   O.3       1 1      0.0000
    24 H24     -1.9529  -0.9300   2.0704   H         1 1      0.0000
    25 N25     -3.6052  -1.9313  -1.1760   N.3       1 1      0.0000
    26 H26     -3.3320  -1.7618  -2.1440   H         1 1      0.0000
    27 C27     -3.1855  -3.2938  -0.8437   C.3       1 1      0.0000
    28 H28     -3.1896  -3.4468   0.2334   H         1 1      0.0000
    29 H29     -3.8558  -4.0241  -1.2923   H         1 1      0.0000
    30 H30     -2.1794  -3.4875  -1.2097   H         1 1      0.0000
    31 OL1     -3.3877  -0.9820   0.9893   O.3       1 1      0.0000
    32 H32     -4.3719  -0.9778   1.0865   H         1 1      0.0000
    33 CL4     -1.0389   1.2453   0.8954   C.2       1 1      0.0000
    34 C34     -1.5221   3.3114  -0.1649   C.3       1 1      0.0000
    35 H35     -2.4422   3.4685   0.4115   H         1 1      0.0000
    36 H36     -0.7113   3.8416   0.3497   H         1 1      0.0000
    37 OL3     -1.1092   1.7517   1.9812   O.2       1 1      0.0000
    38 OL4     -1.2184   1.8879  -0.2522   O.3       1 1      0.0000
    39 C39     -1.6840   3.8343  -1.5400   C.3       1 1      0.0000
    40 H40     -2.4937   3.3214  -2.0548   H         1 1      0.0000
    41 H41     -1.9127   4.8979  -1.5237   H         1 1      0.0000
    42 H42     -0.7722   3.6925  -2.1163   H         1 1      0.0000
@<TRIPOS>BOND
     1     1     2   ar
     2     1     6   ar
     3     1    11    1
     4     2     3   ar
     5     2     7    1
     6     3     4   ar
     7     3     8    1
     8     4     5   ar
     9     4    14    1
    10     5     6   ar
    11     5     9    1
    12     6    10    1
    13    11    12    2
    14    11    13    2
    15    14    15    1
    16    14    23    1
    17    14    33    1
    18    15    16    1
    19    15    17    1
    20    15    18    1
    21    18    19    1
    22    18    25    1
    23    18    31    1
    24    19    20    1
    25    19    21    1
    26    19    22    1
    27    23    24    1
    28    25    26    1
    29    25    27    1
    30    27    28    1
    31    27    29    1
    32    27    30    1
    33    31    32    1
    34    33    37    2
    35    33    38    1
    36    34    35    1
    37    34    36    1
    38    34    38    1
    39    34    39    1
    40    39    40    1
    41    39    41    1
    42    39    42    1
@<TRIPOS>SUBSTRUCTURE
     1 1           1 GROUP             0 ****  ****    0  
@<TRIPOS>MOLECULE
Molecule Name_00286
    42    42     1     0     0
SMALL
NO_CHARGES
****
Generated from the CSD

@<TRIPOS>ATOM
     1 C1       2.8732  -0.6822  -0.1666   C.ar      1 1      0.0000
     2 C2       2.1170  -1.5908   0.5400   C.ar      1 1      0.0000
     3 C3       0.8291  -1.2397   0.9019   C.ar      1 1      0.0000
     4 C4       0.2948   0.0002   0.5697   C.ar      1 1      0.0000
     5 C5       1.0921   0.8854  -0.1474   C.ar      1 1      0.0000
     6 C6       2.3825   0.5552  -0.5196   C.ar      1 1      0.0000
     7 H7       2.5228  -2.5610   0.8070   H         1 1      0.0000
     8 H8       0.2268  -1.9513   1.4562   H         1 1      0.0000
     9 H9       0.6974   1.8574  -0.4238   H         1 1      0.0000
    10 H10      2.9949   1.2557  -1.0777   H         1 1      0.0000
    11 N11      4.2419  -1.0434  -0.5550   N.pl3     1 1      0.0000
    12 O12      4.6624  -2.1442  -0.2348   O.2       1 1      0.0000
    13 O13      4.8997  -0.2271  -1.1813   O.2       1 1      0.0000
    14 CL3     -1.1265   0.3854   0.9828   C.3       1 1      0.0000
    15 CL1     -2.1412   0.0328  -0.1416   C.3       1 1      0.0000
    16 H16     -3.1369   0.3762   0.1639   H         1 1      0.0000
    17 H17     -1.8712   0.6010  -1.0403   H         1 1      0.0000
    18 CL      -2.2364  -1.4541  -0.5268   C.3       1 1      0.0000
    19 CL2     -3.6616  -1.7651  -0.9459   C.3       1 1      0.0000
    20 H20     -3.7644  -2.8145  -1.2142   H         1 1      0.0000
    21 H21     -4.3567  -1.5526  -0.1364   H         1 1      0.0000
    22 H22     -3.9501  -1.1654  -1.8067   H         1 1      0.0000
    23 OL2     -1.4347  -0.3121   2.1832   O.3       1 1      0.0000
    24 H24     -2.3367  -0.0502   2.4931   H         1 1      0.0000
    25 N25     -1.3604  -1.7434  -1.6317   N.3       1 1      0.0000
    26 H26     -0.4140  -1.5084  -1.3326   H         1 1      0.0000
    27 C27     -1.3281  -3.1262  -2.1113   C.3       1 1      0.0000
    28 H28     -2.3137  -3.4408  -2.4480   H         1 1      0.0000
    29 H29     -0.6363  -3.2294  -2.9447   H         1 1      0.0000
    30 H30     -1.0088  -3.8014  -1.3202   H         1 1      0.0000
    31 OL1     -1.9458  -2.2567   0.6112   O.3       1 1      0.0000
    32 H32     -2.0496  -3.2115   0.3752   H         1 1      0.0000
    33 CL4     -1.0725   1.9024   1.2532   C.2       1 1      0.0000
    34 C34     -1.2138   4.0575   0.2725   C.3       1 1      0.0000
    35 H35     -1.9983   4.3931   0.9620   H         1 1      0.0000
    36 H36     -0.2488   4.3805   0.6821   H         1 1      0.0000
    37 OL3     -0.8950   2.3762   2.3415   O.2       1 1      0.0000
    38 OL4     -1.2454   2.6056   0.1407   O.3       1 1      0.0000
    39 C39     -1.4241   4.6476  -1.0684   C.3       1 1      0.0000
    40 H40     -2.3841   4.3412  -1.4784   H         1 1      0.0000
    41 H41     -1.4082   5.7344  -1.0183   H         1 1      0.0000
    42 H42     -0.6442   4.3287  -1.7568   H         1 1      0.0000
@<TRIPOS>BOND
     1     1     2   ar
     2     1     6   ar
     3     1    11    1
     4     2     3   ar
     5     2     7    1
     6     3     4   ar
     7     3     8    1
     8     4     5   ar
     9     4    14    1
    10     5     6   ar
    11     5     9    1
    12     6    10    1
    13    11    12    2
    14    11    13    2
    15    14    15    1
    16    14    23    1
    17    14    33    1
    18    15    16    1
    19    15    17    1
    20    15    18    1
    21    18    19    1
    22    18    25    1
    23    18    31    1
    24    19    20    1
    25    19    21    1
    26    19    22    1
    27    23    24    1
    28    25    26    1
    29    25    27    1
    30    27    28    1
    31    27    29    1
    32    27    30    1
    33    31    32    1
    34    33    37    2
    35    33    38    1
    36    34    35    1
    37    34    36    1
    38    34    38    1
    39    34    39    1
    40    39    40    1
    41    39    41    1
    42    39    42    1
@<TRIPOS>SUBSTRUCTURE
     1 1           1 GROUP             0 ****  ****    0  
@<TRIPOS>MOLECULE
Molecule Name_00287
    42    42     1     0     0
SMALL
NO_CHARGES
****
Generated from the CSD

@<TRIPOS>ATOM
     1 C1       2.9017  -0.6882  -0.1522   C.ar      1 1      0.0000
     2 C2       2.1829  -1.5993   0.5894   C.ar      1 1      0.0000
     3 C3       0.8907  -1.2764   0.9618   C.ar      1 1      0.0000
     4 C4       0.3153  -0.0617   0.6059   C.ar      1 1      0.0000
     5 C5       1.0756   0.8270  -0.1461   C.ar      1 1      0.0000
     6 C6       2.3697   0.5247  -0.5295   C.ar      1 1      0.0000
     7 H7       2.6209  -2.5500   0.8752   H         1 1      0.0000
     8 H8       0.3178  -1.9903   1.5436   H         1 1      0.0000
     9 H9       0.6485   1.7795  -0.4415   H         1 1      0.0000
    10 H10      2.9529   1.2278  -1.1149   H         1 1      0.0000
    11 N11      4.2746  -1.0196  -0.5522   N.pl3     1 1      0.0000
    12 O12      4.7319  -2.0990  -0.2100   O.2       1 1      0.0000
    13 O13      4.8988  -0.2013  -1.2094   O.2       1 1      0.0000
    14 CL3     -1.1104   0.2928   1.0307   C.3       1 1      0.0000
    15 CL1     -2.1335  -0.1459  -0.0552   C.3       1 1      0.0000
    16 H16     -3.1361   0.1673   0.2603   H         1 1      0.0000
    17 H17     -1.9078   0.3973  -0.9811   H         1 1      0.0000
    18 CL      -2.1735  -1.6495  -0.3806   C.3       1 1      0.0000
    19 CL2     -3.5795  -2.0238  -0.8125   C.3       1 1      0.0000
    20 H20     -3.5952  -3.0173  -1.2557   H         1 1      0.0000
    21 H21     -4.2578  -2.0214   0.0381   H         1 1      0.0000
    22 H22     -3.9574  -1.3180  -1.5493   H         1 1      0.0000
    23 OL2     -1.3706  -0.3589   2.2676   O.3       1 1      0.0000
    24 H24     -2.2751  -0.1143   2.5841   H         1 1      0.0000
    25 N25     -1.2673  -1.9544  -1.4566   N.3       1 1      0.0000
    26 H26     -1.3122  -2.9620  -1.6090   H         1 1      0.0000
    27 C27     -1.5260  -1.3132  -2.7469   C.3       1 1      0.0000
    28 H28     -1.2660  -0.2573  -2.7119   H         1 1      0.0000
    29 H29     -0.9390  -1.7808  -3.5346   H         1 1      0.0000
    30 H30     -2.5776  -1.3946  -3.0141   H         1 1      0.0000
    31 OL1     -1.8796  -2.3954   0.7945   O.3       1 1      0.0000
    32 H32     -1.9303  -3.3620   0.5915   H         1 1      0.0000
    33 CL4     -1.1050   1.8216   1.2309   C.2       1 1      0.0000
    34 C34     -1.3419   3.9232   0.1569   C.3       1 1      0.0000
    35 H35     -2.1240   4.2629   0.8469   H         1 1      0.0000
    36 H36     -0.3811   4.2978   0.5309   H         1 1      0.0000
    37 OL3     -0.9231   2.3509   2.2926   O.2       1 1      0.0000
    38 OL4     -1.3245   2.4665   0.0916   O.3       1 1      0.0000
    39 C39     -1.5992   4.4434  -1.2046   C.3       1 1      0.0000
    40 H40     -2.5556   4.0855  -1.5799   H         1 1      0.0000
    41 H41     -1.6209   5.5312  -1.2041   H         1 1      0.0000
    42 H42     -0.8222   4.1202  -1.8942   H         1 1      0.0000
@<TRIPOS>BOND
     1     1     2   ar
     2     1     6   ar
     3     1    11    1
     4     2     3   ar
     5     2     7    1
     6     3     4   ar
     7     3     8    1
     8     4     5   ar
     9     4    14    1
    10     5     6   ar
    11     5     9    1
    12     6    10    1
    13    11    12    2
    14    11    13    2
    15    14    15    1
    16    14    23    1
    17    14    33    1
    18    15    16    1
    19    15    17    1
    20    15    18    1
    21    18    19    1
    22    18    25    1
    23    18    31    1
    24    19    20    1
    25    19    21    1
    26    19    22    1
    27    23    24    1
    28    25    26    1
    29    25    27    1
    30    27    28    1
    31    27    29    1
    32    27    30    1
    33    31    32    1
    34    33    37    2
    35    33    38    1
    36    34    35    1
    37    34    36    1
    38    34    38    1
    39    34    39    1
    40    39    40    1
    41    39    41    1
    42    39    42    1
@<TRIPOS>SUBSTRUCTURE
     1 1           1 GROUP             0 ****  ****    0  
@<TRIPOS>MOLECULE
Molecule Name_00288
    42    42     1     0     0
SMALL
NO_CHARGES
****
Generated from the CSD

@<TRIPOS>ATOM
     1 C1       2.8916  -0.6428  -0.3207   C.ar      1 1      0.0000
     2 C2       2.1141  -1.6317   0.2399   C.ar      1 1      0.0000
     3 C3       0.8234  -1.3190   0.6261   C.ar      1 1      0.0000
     4 C4       0.3072  -0.0385   0.4616   C.ar      1 1      0.0000
     5 C5       1.1257   0.9283  -0.1119   C.ar      1 1      0.0000
     6 C6       2.4193   0.6376  -0.5055   C.ar      1 1      0.0000
     7 H7       2.5057  -2.6345   0.3754   H         1 1      0.0000
     8 H8       0.2045  -2.0935   1.0657   H         1 1      0.0000
     9 H9       0.7454   1.9340  -0.2564   H         1 1      0.0000
    10 H10      3.0483   1.4017  -0.9502   H         1 1      0.0000
    11 N11      4.2635  -0.9627  -0.7333   N.pl3     1 1      0.0000
    12 O12      4.6675  -2.1025  -0.5630   O.2       1 1      0.0000
    13 O13      4.9402  -0.0751  -1.2287   O.2       1 1      0.0000
    14 CL3     -1.1174   0.3025   0.9011   C.3       1 1      0.0000
    15 CL1     -2.1139   0.1317  -0.2806   C.3       1 1      0.0000
    16 H16     -3.1097   0.4492   0.0514   H         1 1      0.0000
    17 H17     -1.8147   0.8147  -1.0853   H         1 1      0.0000
    18 CL      -2.2269  -1.2842  -0.8726   C.3       1 1      0.0000
    19 CL2     -1.2031  -1.4384  -1.9824   C.3       1 1      0.0000
    20 H20     -1.6875  -1.7032  -2.9199   H         1 1      0.0000
    21 H21     -0.6559  -0.5104  -2.1339   H         1 1      0.0000
    22 H22     -0.4855  -2.2192  -1.7393   H         1 1      0.0000
    23 OL2     -1.4571  -0.5579   1.9813   O.3       1 1      0.0000
    24 H24     -2.3619  -0.3312   2.3100   H         1 1      0.0000
    25 N25     -1.9596  -2.2737   0.1381   N.3       1 1      0.0000
    26 H26     -2.6441  -2.1345   0.8814   H         1 1      0.0000
    27 C27     -2.0446  -3.6781  -0.2662   C.3       1 1      0.0000
    28 H28     -1.3344  -3.8941  -1.0617   H         1 1      0.0000
    29 H29     -1.8241  -4.3349   0.5726   H         1 1      0.0000
    30 H30     -3.0425  -3.9152  -0.6292   H         1 1      0.0000
    31 OL1     -3.5129  -1.4506  -1.4577   O.3       1 1      0.0000
    32 H32     -3.4777  -2.1774  -2.1276   H         1 1      0.0000
    33 CL4     -1.0515   1.7630   1.3908   C.2       1 1      0.0000
    34 C34     -1.1486   4.0397   0.7324   C.3       1 1      0.0000
    35 H35     -1.9427   4.2825   1.4493   H         1 1      0.0000
    36 H36     -0.1883   4.2859   1.2021   H         1 1      0.0000
    37 OL3     -0.8903   2.0708   2.5395   O.2       1 1      0.0000
    38 OL4     -1.1941   2.6231   0.3898   O.3       1 1      0.0000
    39 C39     -1.3253   4.8217  -0.5116   C.3       1 1      0.0000
    40 H40     -2.2805   4.5920  -0.9792   H         1 1      0.0000
    41 H41     -1.2980   5.8893  -0.3033   H         1 1      0.0000
    42 H42     -0.5356   4.5953  -1.2250   H         1 1      0.0000
@<TRIPOS>BOND
     1     1     2   ar
     2     1     6   ar
     3     1    11    1
     4     2     3   ar
     5     2     7    1
     6     3     4   ar
     7     3     8    1
     8     4     5   ar
     9     4    14    1
    10     5     6   ar
    11     5     9    1
    12     6    10    1
    13    11    12    2
    14    11    13    2
    15    14    15    1
    16    14    23    1
    17    14    33    1
    18    15    16    1
    19    15    17    1
    20    15    18    1
    21    18    19    1
    22    18    25    1
    23    18    31    1
    24    19    20    1
    25    19    21    1
    26    19    22    1
    27    23    24    1
    28    25    26    1
    29    25    27    1
    30    27    28    1
    31    27    29    1
    32    27    30    1
    33    31    32    1
    34    33    37    2
    35    33    38    1
    36    34    35    1
    37    34    36    1
    38    34    38    1
    39    34    39    1
    40    39    40    1
    41    39    41    1
    42    39    42    1
@<TRIPOS>SUBSTRUCTURE
     1 1           1 GROUP             0 ****  ****    0  
@<TRIPOS>MOLECULE
Molecule Name_00289
    42    42     1     0     0
SMALL
NO_CHARGES
****
Generated from the CSD

@<TRIPOS>ATOM
     1 C1       3.5540  -0.3285  -0.1904   C.ar      1 1      0.0000
     2 C2       3.0477  -0.7460   1.0204   C.ar      1 1      0.0000
     3 C3       1.6764  -0.7424   1.2004   C.ar      1 1      0.0000
     4 C4       0.8136  -0.3271   0.1923   C.ar      1 1      0.0000
     5 C5       1.3676   0.0829  -1.0154   C.ar      1 1      0.0000
     6 C6       2.7359   0.0874  -1.2171   C.ar      1 1      0.0000
     7 H7       3.7103  -1.0708   1.8159   H         1 1      0.0000
     8 H8       1.2705  -1.0725   2.1504   H         1 1      0.0000
     9 H9       0.7163   0.4068  -1.8202   H         1 1      0.0000
    10 H10      3.1555   0.4113  -2.1638   H         1 1      0.0000
    11 N11      5.0080  -0.3269  -0.3924   N.pl3     1 1      0.0000
    12 O12      5.7282  -0.4247   0.5889   O.2       1 1      0.0000
    13 O13      5.4331  -0.2278  -1.5329   O.2       1 1      0.0000
    14 CL3     -0.7012  -0.3156   0.4025   C.3       1 1      0.0000
    15 CL1     -1.3990  -1.3114  -0.5669   C.3       1 1      0.0000
    16 H16     -1.2491  -0.9629  -1.5958   H         1 1      0.0000
    17 H17     -0.8960  -2.2828  -0.4841   H         1 1      0.0000
    18 CL      -2.9054  -1.5324  -0.3427   C.3       1 1      0.0000
    19 CL2     -3.1165  -2.1319   1.0355   C.3       1 1      0.0000
    20 H20     -3.9154  -2.8704   1.0167   H         1 1      0.0000
    21 H21     -2.2105  -2.6217   1.3861   H         1 1      0.0000
    22 H22     -3.3848  -1.3608   1.7546   H         1 1      0.0000
    23 OL2     -0.9548  -0.6630   1.7580   O.3       1 1      0.0000
    24 H24     -1.8112  -0.2604   2.0457   H         1 1      0.0000
    25 N25     -3.6120  -0.2803  -0.4108   N.3       1 1      0.0000
    26 H26     -2.9372   0.4288  -0.6974   H         1 1      0.0000
    27 C27     -4.7389  -0.2016  -1.3419   C.3       1 1      0.0000
    28 H28     -5.4999  -0.9371  -1.0894   H         1 1      0.0000
    29 H29     -5.1971   0.7847  -1.3105   H         1 1      0.0000
    30 H30     -4.4104  -0.3904  -2.3618   H         1 1      0.0000
    31 OL1     -3.3914  -2.4738  -1.2921   O.3       1 1      0.0000
    32 H32     -4.3110  -2.7429  -1.0470   H         1 1      0.0000
    33 CL4     -1.1353   1.1406   0.1411   C.2       1 1      0.0000
    34 C34     -1.8452   3.1675   1.1481   C.3       1 1      0.0000
    35 H35     -2.4618   3.2986   0.2504   H         1 1      0.0000
    36 H36     -2.4521   3.4564   2.0150   H         1 1      0.0000
    37 OL3     -1.2026   1.6262  -0.9544   O.2       1 1      0.0000
    38 OL4     -1.4208   1.7777   1.2701   O.3       1 1      0.0000
    39 C39     -0.6343   4.0145   1.0657   C.3       1 1      0.0000
    40 H40     -0.0311   3.7421   0.2022   H         1 1      0.0000
    41 H41     -0.9037   5.0646   0.9733   H         1 1      0.0000
    42 H42     -0.0215   3.8991   1.9573   H         1 1      0.0000
@<TRIPOS>BOND
     1     1     2   ar
     2     1     6   ar
     3     1    11    1
     4     2     3   ar
     5     2     7    1
     6     3     4   ar
     7     3     8    1
     8     4     5   ar
     9     4    14    1
    10     5     6   ar
    11     5     9    1
    12     6    10    1
    13    11    12    2
    14    11    13    2
    15    14    15    1
    16    14    23    1
    17    14    33    1
    18    15    16    1
    19    15    17    1
    20    15    18    1
    21    18    19    1
    22    18    25    1
    23    18    31    1
    24    19    20    1
    25    19    21    1
    26    19    22    1
    27    23    24    1
    28    25    26    1
    29    25    27    1
    30    27    28    1
    31    27    29    1
    32    27    30    1
    33    31    32    1
    34    33    37    2
    35    33    38    1
    36    34    35    1
    37    34    36    1
    38    34    38    1
    39    34    39    1
    40    39    40    1
    41    39    41    1
    42    39    42    1
@<TRIPOS>SUBSTRUCTURE
     1 1           1 GROUP             0 ****  ****    0  
@<TRIPOS>MOLECULE
Molecule Name_00290
    42    42     1     0     0
SMALL
NO_CHARGES
****
Generated from the CSD

@<TRIPOS>ATOM
     1 C1       3.6567  -0.4746  -0.1619   C.ar      1 1      0.0000
     2 C2       3.1177  -0.9001   1.0318   C.ar      1 1      0.0000
     3 C3       1.7469  -0.8287   1.2013   C.ar      1 1      0.0000
     4 C4       0.9168  -0.3383   0.1994   C.ar      1 1      0.0000
     5 C5       1.5030   0.0771  -0.9910   C.ar      1 1      0.0000
     6 C6       2.8714   0.0145  -1.1820   C.ar      1 1      0.0000
     7 H7       3.7546  -1.2832   1.8223   H         1 1      0.0000
     8 H8       1.3152  -1.1646   2.1378   H         1 1      0.0000
     9 H9       0.8773   0.4590  -1.7908   H         1 1      0.0000
    10 H10      3.3164   0.3434  -2.1153   H         1 1      0.0000
    11 N11      5.1105  -0.5447  -0.3526   N.pl3     1 1      0.0000
    12 O12      5.8153  -0.7098   0.6309   O.2       1 1      0.0000
    13 O13      5.5509  -0.4347  -1.4862   O.2       1 1      0.0000
    14 CL3     -0.5972  -0.2522   0.3982   C.3       1 1      0.0000
    15 CL1     -1.3379  -1.1802  -0.6060   C.3       1 1      0.0000
    16 H16     -1.1601  -0.8099  -1.6229   H         1 1      0.0000
    17 H17     -0.8880  -2.1791  -0.5486   H         1 1      0.0000
    18 CL      -2.8559  -1.3271  -0.4002   C.3       1 1      0.0000
    19 CL2     -3.1114  -1.9549   0.9577   C.3       1 1      0.0000
    20 H20     -3.9481  -2.6488   0.9104   H         1 1      0.0000
    21 H21     -2.2359  -2.5025   1.3003   H         1 1      0.0000
    22 H22     -3.3450  -1.1921   1.6975   H         1 1      0.0000
    23 OL2     -0.8816  -0.6254   1.7407   O.3       1 1      0.0000
    24 H24     -1.7179  -0.1865   2.0337   H         1 1      0.0000
    25 N25     -3.4944  -0.0375  -0.4362   N.3       1 1      0.0000
    26 H26     -2.7801   0.6427  -0.6961   H         1 1      0.0000
    27 C27     -4.6067   0.1287  -1.3732   C.3       1 1      0.0000
    28 H28     -5.4081  -0.5722  -1.1488   H         1 1      0.0000
    29 H29     -5.0122   1.1367  -1.3157   H         1 1      0.0000
    30 H30     -4.2792  -0.0470  -2.3958   H         1 1      0.0000
    31 OL1     -3.3823  -2.2126  -1.3812   O.3       1 1      0.0000
    32 H32     -4.3171  -2.4395  -1.1514   H         1 1      0.0000
    33 CL4     -0.9508   1.2322   0.1773   C.2       1 1      0.0000
    34 C34     -1.5614   3.2634   1.2392   C.3       1 1      0.0000
    35 H35     -1.3324   3.7674   2.1863   H         1 1      0.0000
    36 H36     -0.9764   3.7528   0.4508   H         1 1      0.0000
    37 OL3     -0.9821   1.7529  -0.9036   O.2       1 1      0.0000
    38 OL4     -1.2127   1.8500   1.3226   O.3       1 1      0.0000
    39 C39     -3.0076   3.3654   0.9416   C.3       1 1      0.0000
    40 H40     -3.5968   2.8918   1.7242   H         1 1      0.0000
    41 H41     -3.3141   4.4069   0.8700   H         1 1      0.0000
    42 H42     -3.2426   2.8773  -0.0019   H         1 1      0.0000
@<TRIPOS>BOND
     1     1     2   ar
     2     1     6   ar
     3     1    11    1
     4     2     3   ar
     5     2     7    1
     6     3     4   ar
     7     3     8    1
     8     4     5   ar
     9     4    14    1
    10     5     6   ar
    11     5     9    1
    12     6    10    1
    13    11    12    2
    14    11    13    2
    15    14    15    1
    16    14    23    1
    17    14    33    1
    18    15    16    1
    19    15    17    1
    20    15    18    1
    21    18    19    1
    22    18    25    1
    23    18    31    1
    24    19    20    1
    25    19    21    1
    26    19    22    1
    27    23    24    1
    28    25    26    1
    29    25    27    1
    30    27    28    1
    31    27    29    1
    32    27    30    1
    33    31    32    1
    34    33    37    2
    35    33    38    1
    36    34    35    1
    37    34    36    1
    38    34    38    1
    39    34    39    1
    40    39    40    1
    41    39    41    1
    42    39    42    1
@<TRIPOS>SUBSTRUCTURE
     1 1           1 GROUP             0 ****  ****    0  
@<TRIPOS>MOLECULE
Molecule Name_00291
    42    42     1     0     0
SMALL
NO_CHARGES
****
Generated from the CSD

@<TRIPOS>ATOM
     1 C1       3.5215  -0.3389  -0.2200   C.ar      1 1      0.0000
     2 C2       2.9668  -0.8536   0.9307   C.ar      1 1      0.0000
     3 C3       1.5931  -0.8019   1.0831   C.ar      1 1      0.0000
     4 C4       0.7755  -0.2436   0.1068   C.ar      1 1      0.0000
     5 C5       1.3774   0.2609  -1.0406   C.ar      1 1      0.0000
     6 C6       2.7489   0.2195  -1.2139   C.ar      1 1      0.0000
     7 H7       3.5939  -1.2902   1.7010   H         1 1      0.0000
     8 H8       1.1491  -1.2077   1.9856   H         1 1      0.0000
     9 H9       0.7617   0.6971  -1.8201   H         1 1      0.0000
    10 H10      3.2062   0.6183  -2.1134   H         1 1      0.0000
    11 N11      4.9784  -0.3873  -0.3922   N.pl3     1 1      0.0000
    12 O12      5.6690  -0.6203   0.5876   O.2       1 1      0.0000
    13 O13      5.4356  -0.1922  -1.5076   O.2       1 1      0.0000
    14 CL3     -0.7418  -0.1802   0.2873   C.3       1 1      0.0000
    15 CL1     -1.4613  -1.0317  -0.7970   C.3       1 1      0.0000
    16 H16     -1.2094  -0.6274  -1.7849   H         1 1      0.0000
    17 H17     -1.0577  -2.0510  -0.7587   H         1 1      0.0000
    18 CL      -2.9934  -1.1195  -0.6835   C.3       1 1      0.0000
    19 CL2     -3.5292  -1.9289  -1.8503   C.3       1 1      0.0000
    20 H20     -4.6128  -2.0113  -1.7972   H         1 1      0.0000
    21 H21     -3.2710  -1.4586  -2.7968   H         1 1      0.0000
    22 H22     -3.1123  -2.9338  -1.8463   H         1 1      0.0000
    23 OL2     -1.0450  -0.6571   1.5924   O.3       1 1      0.0000
    24 H24     -2.0192  -0.5901   1.7487   H         1 1      0.0000
    25 N25     -3.3693  -1.7766   0.5408   N.3       1 1      0.0000
    26 H26     -3.9500  -1.1223   1.0653   H         1 1      0.0000
    27 C27     -4.1273  -3.0233   0.4218   C.3       1 1      0.0000
    28 H28     -3.5625  -3.7661  -0.1376   H         1 1      0.0000
    29 H29     -4.3490  -3.4351   1.4041   H         1 1      0.0000
    30 H30     -5.0695  -2.8539  -0.0953   H         1 1      0.0000
    31 OL1     -3.5504   0.1857  -0.7834   O.3       1 1      0.0000
    32 H32     -4.5365   0.1268  -0.7361   H         1 1      0.0000
    33 CL4     -1.1008   1.3150   0.1756   C.2       1 1      0.0000
    34 C34     -1.7883   3.2435   1.3735   C.3       1 1      0.0000
    35 H35     -2.3441   3.5058   0.4648   H         1 1      0.0000
    36 H36     -2.4342   3.4587   2.2336   H         1 1      0.0000
    37 OL3     -1.0827   1.9262  -0.8572   O.2       1 1      0.0000
    38 OL4     -1.4280   1.8306   1.3542   O.3       1 1      0.0000
    39 C39     -0.5417   4.0368   1.4581   C.3       1 1      0.0000
    40 H40      0.1009   3.8378   0.6031   H         1 1      0.0000
    41 H41     -0.7629   5.1020   1.4752   H         1 1      0.0000
    42 H42      0.0113   3.7909   2.3623   H         1 1      0.0000
@<TRIPOS>BOND
     1     1     2   ar
     2     1     6   ar
     3     1    11    1
     4     2     3   ar
     5     2     7    1
     6     3     4   ar
     7     3     8    1
     8     4     5   ar
     9     4    14    1
    10     5     6   ar
    11     5     9    1
    12     6    10    1
    13    11    12    2
    14    11    13    2
    15    14    15    1
    16    14    23    1
    17    14    33    1
    18    15    16    1
    19    15    17    1
    20    15    18    1
    21    18    19    1
    22    18    25    1
    23    18    31    1
    24    19    20    1
    25    19    21    1
    26    19    22    1
    27    23    24    1
    28    25    26    1
    29    25    27    1
    30    27    28    1
    31    27    29    1
    32    27    30    1
    33    31    32    1
    34    33    37    2
    35    33    38    1
    36    34    35    1
    37    34    36    1
    38    34    38    1
    39    34    39    1
    40    39    40    1
    41    39    41    1
    42    39    42    1
@<TRIPOS>SUBSTRUCTURE
     1 1           1 GROUP             0 ****  ****    0  
@<TRIPOS>MOLECULE
Molecule Name_00292
    42    42     1     0     0
SMALL
NO_CHARGES
****
Generated from the CSD

@<TRIPOS>ATOM
     1 C1       3.6254  -0.4770  -0.1878   C.ar      1 1      0.0000
     2 C2       3.0366  -1.0025   0.9408   C.ar      1 1      0.0000
     3 C3       1.6660  -0.8874   1.0863   C.ar      1 1      0.0000
     4 C4       0.8851  -0.2557   0.1249   C.ar      1 1      0.0000
     5 C5       1.5205   0.2573  -1.0005   C.ar      1 1      0.0000
     6 C6       2.8896   0.1533  -1.1666   C.ar      1 1      0.0000
     7 H7       3.6349  -1.4962   1.6993   H         1 1      0.0000
     8 H8       1.1952  -1.3013   1.9713   H         1 1      0.0000
     9 H9       0.9336   0.7503  -1.7682   H         1 1      0.0000
    10 H10      3.3734   0.5594  -2.0488   H         1 1      0.0000
    11 N11      5.0795  -0.5922  -0.3525   N.pl3     1 1      0.0000
    12 O12      5.7497  -0.8932   0.6229   O.2       1 1      0.0000
    13 O13      5.5547  -0.3821  -1.4576   O.2       1 1      0.0000
    14 CL3     -0.6286  -0.1226   0.2979   C.3       1 1      0.0000
    15 CL1     -1.3809  -0.8992  -0.8198   C.3       1 1      0.0000
    16 H16     -1.1013  -0.4743  -1.7914   H         1 1      0.0000
    17 H17     -1.0289  -1.9382  -0.8144   H         1 1      0.0000
    18 CL      -2.9164  -0.9141  -0.7191   C.3       1 1      0.0000
    19 CL2     -3.4825  -1.6550  -1.9166   C.3       1 1      0.0000
    20 H20     -4.5692  -1.6849  -1.8732   H         1 1      0.0000
    21 H21     -3.1936  -1.1659  -2.8445   H         1 1      0.0000
    22 H22     -3.1162  -2.6791  -1.9449   H         1 1      0.0000
    23 OL2     -0.9656  -0.6283   1.5837   O.3       1 1      0.0000
    24 H24     -1.9365  -0.5181   1.7362   H         1 1      0.0000
    25 N25     -3.3343  -1.5932   0.4793   N.3       1 1      0.0000
    26 H26     -3.8859  -0.9291   1.0226   H         1 1      0.0000
    27 C27     -4.1525  -2.7956   0.3123   C.3       1 1      0.0000
    28 H28     -3.6209  -3.5461  -0.2690   H         1 1      0.0000
    29 H29     -4.4023  -3.2293   1.2783   H         1 1      0.0000
    30 H30     -5.0809  -2.5615  -0.2045   H         1 1      0.0000
    31 OL1     -3.4068   0.4201  -0.7770   O.3       1 1      0.0000
    32 H32     -4.3950   0.4090  -0.7379   H         1 1      0.0000
    33 CL4     -0.9118   1.3917   0.2360   C.2       1 1      0.0000
    34 C34     -1.5119   3.3098   1.4958   C.3       1 1      0.0000
    35 H35     -1.3247   3.6886   2.5082   H         1 1      0.0000
    36 H36     -0.8601   3.8615   0.8072   H         1 1      0.0000
    37 OL3     -0.8550   2.0363  -0.7748   O.2       1 1      0.0000
    38 OL4     -1.2223   1.8822   1.4298   O.3       1 1      0.0000
    39 C39     -2.9315   3.5105   1.1285   C.3       1 1      0.0000
    40 H40     -3.5864   2.9753   1.8130   H         1 1      0.0000
    41 H41     -3.1936   4.5659   1.1643   H         1 1      0.0000
    42 H42     -3.1244   3.1473   0.1212   H         1 1      0.0000
@<TRIPOS>BOND
     1     1     2   ar
     2     1     6   ar
     3     1    11    1
     4     2     3   ar
     5     2     7    1
     6     3     4   ar
     7     3     8    1
     8     4     5   ar
     9     4    14    1
    10     5     6   ar
    11     5     9    1
    12     6    10    1
    13    11    12    2
    14    11    13    2
    15    14    15    1
    16    14    23    1
    17    14    33    1
    18    15    16    1
    19    15    17    1
    20    15    18    1
    21    18    19    1
    22    18    25    1
    23    18    31    1
    24    19    20    1
    25    19    21    1
    26    19    22    1
    27    23    24    1
    28    25    26    1
    29    25    27    1
    30    27    28    1
    31    27    29    1
    32    27    30    1
    33    31    32    1
    34    33    37    2
    35    33    38    1
    36    34    35    1
    37    34    36    1
    38    34    38    1
    39    34    39    1
    40    39    40    1
    41    39    41    1
    42    39    42    1
@<TRIPOS>SUBSTRUCTURE
     1 1           1 GROUP             0 ****  ****    0  
@<TRIPOS>MOLECULE
Molecule Name_00293
    42    42     1     0     0
SMALL
NO_CHARGES
****
Generated from the CSD

@<TRIPOS>ATOM
     1 C1       3.1326  -0.5287  -0.3284   C.ar      1 1      0.0000
     2 C2       2.3310   0.2248  -1.1568   C.ar      1 1      0.0000
     3 C3       1.0140   0.4351  -0.7906   C.ar      1 1      0.0000
     4 C4       0.4938  -0.0975   0.3837   C.ar      1 1      0.0000
     5 C5       1.3394  -0.8490   1.1921   C.ar      1 1      0.0000
     6 C6       2.6596  -1.0718   0.8454   C.ar      1 1      0.0000
     7 H7       2.7242   0.6446  -2.0769   H         1 1      0.0000
     8 H8       0.3777   1.0299  -1.4369   H         1 1      0.0000
     9 H9       0.9599  -1.2715   2.1165   H         1 1      0.0000
    10 H10      3.3085  -1.6616   1.4844   H         1 1      0.0000
    11 N11      4.5318  -0.7595  -0.7075   N.pl3     1 1      0.0000
    12 O12      5.2296  -1.4297   0.0376   O.2       1 1      0.0000
    13 O13      4.9362  -0.2711  -1.7511   O.2       1 1      0.0000
    14 CL3     -0.9666   0.1303   0.7766   C.3       1 1      0.0000
    15 CL1     -1.8897   0.0637  -0.4731   C.3       1 1      0.0000
    16 H16     -2.8324   0.5736  -0.2407   H         1 1      0.0000
    17 H17     -1.4140   0.6296  -1.2836   H         1 1      0.0000
    18 CL      -2.2157  -1.3447  -1.0007   C.3       1 1      0.0000
    19 CL2     -0.9259  -2.0252  -1.4208   C.3       1 1      0.0000
    20 H20     -1.1339  -2.9175  -2.0077   H         1 1      0.0000
    21 H21     -0.3161  -1.3567  -2.0251   H         1 1      0.0000
    22 H22     -0.3441  -2.3203  -0.5501   H         1 1      0.0000
    23 OL2     -1.3224  -0.8674   1.7255   O.3       1 1      0.0000
    24 H24     -2.0441  -0.5243   2.3082   H         1 1      0.0000
    25 N25     -2.8364  -2.1354   0.0295   N.3       1 1      0.0000
    26 H26     -2.9225  -1.5395   0.8529   H         1 1      0.0000
    27 C27     -4.1691  -2.6708  -0.2541   C.3       1 1      0.0000
    28 H28     -4.1462  -3.3198  -1.1270   H         1 1      0.0000
    29 H29     -4.5396  -3.2498   0.5891   H         1 1      0.0000
    30 H30     -4.8747  -1.8658  -0.4487   H         1 1      0.0000
    31 OL1     -3.0340  -1.2376  -2.1595   O.3       1 1      0.0000
    32 H32     -3.1372  -2.1302  -2.5726   H         1 1      0.0000
    33 CL4     -0.9954   1.5223   1.4389   C.2       1 1      0.0000
    34 C34     -1.3175   3.8433   1.0708   C.3       1 1      0.0000
    35 H35     -2.0883   3.9274   1.8468   H         1 1      0.0000
    36 H36     -0.3565   4.1166   1.5240   H         1 1      0.0000
    37 OL3     -0.7973   1.7046   2.6085   O.2       1 1      0.0000
    38 OL4     -1.2639   2.4790   0.5588   O.3       1 1      0.0000
    39 C39     -1.6268   4.7486  -0.0584   C.3       1 1      0.0000
    40 H40     -2.5839   4.4918  -0.5076   H         1 1      0.0000
    41 H41     -1.6769   5.7820   0.2783   H         1 1      0.0000
    42 H42     -0.8615   4.6799  -0.8287   H         1 1      0.0000
@<TRIPOS>BOND
     1     1     2   ar
     2     1     6   ar
     3     1    11    1
     4     2     3   ar
     5     2     7    1
     6     3     4   ar
     7     3     8    1
     8     4     5   ar
     9     4    14    1
    10     5     6   ar
    11     5     9    1
    12     6    10    1
    13    11    12    2
    14    11    13    2
    15    14    15    1
    16    14    23    1
    17    14    33    1
    18    15    16    1
    19    15    17    1
    20    15    18    1
    21    18    19    1
    22    18    25    1
    23    18    31    1
    24    19    20    1
    25    19    21    1
    26    19    22    1
    27    23    24    1
    28    25    26    1
    29    25    27    1
    30    27    28    1
    31    27    29    1
    32    27    30    1
    33    31    32    1
    34    33    37    2
    35    33    38    1
    36    34    35    1
    37    34    36    1
    38    34    38    1
    39    34    39    1
    40    39    40    1
    41    39    41    1
    42    39    42    1
@<TRIPOS>SUBSTRUCTURE
     1 1           1 GROUP             0 ****  ****    0  
@<TRIPOS>MOLECULE
Molecule Name_00294
    42    42     1     0     0
SMALL
NO_CHARGES
****
Generated from the CSD

@<TRIPOS>ATOM
     1 C1       3.6003  -0.4237  -0.1367   C.ar      1 1      0.0000
     2 C2       2.8487   0.2808  -1.0507   C.ar      1 1      0.0000
     3 C3       1.4789   0.3455  -0.8708   C.ar      1 1      0.0000
     4 C4       0.8578  -0.2834   0.2026   C.ar      1 1      0.0000
     5 C5       1.6554  -0.9807   1.1032   C.ar      1 1      0.0000
     6 C6       3.0269  -1.0583   0.9427   C.ar      1 1      0.0000
     7 H7       3.3209   0.7744  -1.8936   H         1 1      0.0000
     8 H8       0.8809   0.9008  -1.5852   H         1 1      0.0000
     9 H9       1.1964  -1.4759   1.9523   H         1 1      0.0000
    10 H10      3.6378  -1.6071   1.6518   H         1 1      0.0000
    11 N11      5.0550  -0.5001  -0.3181   N.pl3     1 1      0.0000
    12 O12      5.7075  -1.1285   0.5008   O.2       1 1      0.0000
    13 O13      5.5483   0.0679  -1.2800   O.2       1 1      0.0000
    14 CL3     -0.6587  -0.2165   0.3889   C.3       1 1      0.0000
    15 CL1     -1.3570  -1.3903  -0.3547   C.3       1 1      0.0000
    16 H16     -1.1834  -1.2762  -1.4316   H         1 1      0.0000
    17 H17     -0.8725  -2.3268  -0.0523   H         1 1      0.0000
    18 CL      -2.8706  -1.5372  -0.1189   C.3       1 1      0.0000
    19 CL2     -3.1174  -1.7970   1.3559   C.3       1 1      0.0000
    20 H20     -3.9459  -2.4890   1.4922   H         1 1      0.0000
    21 H21     -2.2352  -2.2280   1.8245   H         1 1      0.0000
    22 H22     -3.3594  -0.8721   1.8752   H         1 1      0.0000
    23 OL2     -0.9281  -0.2664   1.7844   O.3       1 1      0.0000
    24 H24     -1.7622   0.2292   1.9761   H         1 1      0.0000
    25 N25     -3.5565  -0.3279  -0.4921   N.3       1 1      0.0000
    26 H26     -2.8656   0.2873  -0.9218   H         1 1      0.0000
    27 C27     -4.6650  -0.4567  -1.4396   C.3       1 1      0.0000
    28 H28     -5.4417  -1.1045  -1.0388   H         1 1      0.0000
    29 H29     -5.1083   0.5146  -1.6488   H         1 1      0.0000
    30 H30     -4.3210  -0.8818  -2.3802   H         1 1      0.0000
    31 OL1     -3.3527  -2.6686  -0.8340   O.3       1 1      0.0000
    32 H32     -4.2810  -2.8634  -0.5538   H         1 1      0.0000
    33 CL4     -1.0766   1.1541  -0.1802   C.2       1 1      0.0000
    34 C34     -1.6420   3.3930   0.3621   C.3       1 1      0.0000
    35 H35     -0.8907   3.8174  -0.3154   H         1 1      0.0000
    36 H36     -2.5954   3.3539  -0.1792   H         1 1      0.0000
    37 OL3     -1.2282   1.3678  -1.3514   O.2       1 1      0.0000
    38 OL4     -1.2445   2.0541   0.7811   O.3       1 1      0.0000
    39 C39     -1.7744   4.2353   1.5718   C.3       1 1      0.0000
    40 H40     -0.8303   4.2887   2.1098   H         1 1      0.0000
    41 H41     -2.0710   5.2478   1.3063   H         1 1      0.0000
    42 H42     -2.5256   3.8277   2.2452   H         1 1      0.0000
@<TRIPOS>BOND
     1     1     2   ar
     2     1     6   ar
     3     1    11    1
     4     2     3   ar
     5     2     7    1
     6     3     4   ar
     7     3     8    1
     8     4     5   ar
     9     4    14    1
    10     5     6   ar
    11     5     9    1
    12     6    10    1
    13    11    12    2
    14    11    13    2
    15    14    15    1
    16    14    23    1
    17    14    33    1
    18    15    16    1
    19    15    17    1
    20    15    18    1
    21    18    19    1
    22    18    25    1
    23    18    31    1
    24    19    20    1
    25    19    21    1
    26    19    22    1
    27    23    24    1
    28    25    26    1
    29    25    27    1
    30    27    28    1
    31    27    29    1
    32    27    30    1
    33    31    32    1
    34    33    37    2
    35    33    38    1
    36    34    35    1
    37    34    36    1
    38    34    38    1
    39    34    39    1
    40    39    40    1
    41    39    41    1
    42    39    42    1
@<TRIPOS>SUBSTRUCTURE
     1 1           1 GROUP             0 ****  ****    0  
@<TRIPOS>MOLECULE
Molecule Name_00295
    42    42     1     0     0
SMALL
NO_CHARGES
****
Generated from the CSD

@<TRIPOS>ATOM
     1 C1       3.5125  -0.4257  -0.2077   C.ar      1 1      0.0000
     2 C2       2.9199  -0.8299   0.9679   C.ar      1 1      0.0000
     3 C3       1.5436  -0.7476   1.0772   C.ar      1 1      0.0000
     4 C4       0.7606  -0.2672   0.0334   C.ar      1 1      0.0000
     5 C5       1.4002   0.1267  -1.1367   C.ar      1 1      0.0000
     6 C6       2.7750   0.0528  -1.2677   C.ar      1 1      0.0000
     7 H7       3.5197  -1.2050   1.7906   H         1 1      0.0000
     8 H8       1.0699  -1.0668   1.9991   H         1 1      0.0000
     9 H9       0.8120   0.5003  -1.9682   H         1 1      0.0000
    10 H10      3.2620   0.3650  -2.1857   H         1 1      0.0000
    11 N11      4.9726  -0.5075  -0.3346   N.pl3     1 1      0.0000
    12 O12      5.4831  -0.1453  -1.3832   O.2       1 1      0.0000
    13 O13      5.6125  -0.9341   0.6140   O.2       1 1      0.0000
    14 CL3     -0.7598  -0.1689   0.1656   C.3       1 1      0.0000
    15 CL1     -1.4630  -1.1111  -0.8523   C.3       1 1      0.0000
    16 H16     -1.2168  -0.7773  -1.8675   H         1 1      0.0000
    17 H17     -1.0419  -2.1176  -0.7381   H         1 1      0.0000
    18 CL      -2.9936  -1.2168  -0.7327   C.3       1 1      0.0000
    19 CL2     -3.5914  -1.3205  -2.1239   C.3       1 1      0.0000
    20 H20     -4.6763  -1.3854  -2.0736   H         1 1      0.0000
    21 H21     -3.3313  -0.4493  -2.7214   H         1 1      0.0000
    22 H22     -3.2223  -2.2060  -2.6372   H         1 1      0.0000
    23 OL2     -1.1037  -0.5157   1.5013   O.3       1 1      0.0000
    24 H24     -1.9924  -0.1407   1.7198   H         1 1      0.0000
    25 N25     -3.3588  -2.3933   0.0118   N.3       1 1      0.0000
    26 H26     -2.6397  -3.0946  -0.1653   H         1 1      0.0000
    27 C27     -3.4730  -2.2530   1.4645   C.3       1 1      0.0000
    28 H28     -3.8631  -1.2721   1.7278   H         1 1      0.0000
    29 H29     -4.1443  -3.0055   1.8731   H         1 1      0.0000
    30 H30     -2.5020  -2.3706   1.9409   H         1 1      0.0000
    31 OL1     -3.5045  -0.0285  -0.1406   O.3       1 1      0.0000
    32 H32     -4.4904  -0.0856  -0.0870   H         1 1      0.0000
    33 CL4     -1.0942   1.3131  -0.0973   C.2       1 1      0.0000
    34 C34     -1.4500   3.4327   0.9063   C.3       1 1      0.0000
    35 H35     -0.7019   3.9307   0.2772   H         1 1      0.0000
    36 H36     -2.4293   3.5680   0.4309   H         1 1      0.0000
    37 OL3     -1.2866   1.7656  -1.1921   O.2       1 1      0.0000
    38 OL4     -1.1409   2.0130   1.0297   O.3       1 1      0.0000
    39 C39     -1.4535   4.0243   2.2630   C.3       1 1      0.0000
    40 H40     -0.4823   3.9043   2.7385   H         1 1      0.0000
    41 H41     -1.6806   5.0874   2.2196   H         1 1      0.0000
    42 H42     -2.2003   3.5435   2.8914   H         1 1      0.0000
@<TRIPOS>BOND
     1     1     2   ar
     2     1     6   ar
     3     1    11    1
     4     2     3   ar
     5     2     7    1
     6     3     4   ar
     7     3     8    1
     8     4     5   ar
     9     4    14    1
    10     5     6   ar
    11     5     9    1
    12     6    10    1
    13    11    12    2
    14    11    13    2
    15    14    15    1
    16    14    23    1
    17    14    33    1
    18    15    16    1
    19    15    17    1
    20    15    18    1
    21    18    19    1
    22    18    25    1
    23    18    31    1
    24    19    20    1
    25    19    21    1
    26    19    22    1
    27    23    24    1
    28    25    26    1
    29    25    27    1
    30    27    28    1
    31    27    29    1
    32    27    30    1
    33    31    32    1
    34    33    37    2
    35    33    38    1
    36    34    35    1
    37    34    36    1
    38    34    38    1
    39    34    39    1
    40    39    40    1
    41    39    41    1
    42    39    42    1
@<TRIPOS>SUBSTRUCTURE
     1 1           1 GROUP             0 ****  ****    0  
@<TRIPOS>MOLECULE
Molecule Name_00296
    42    42     1     0     0
SMALL
NO_CHARGES
****
Generated from the CSD

@<TRIPOS>ATOM
     1 C1       3.4748  -0.3968  -0.0938   C.ar      1 1      0.0000
     2 C2       2.6820  -0.2381  -1.2086   C.ar      1 1      0.0000
     3 C3       1.3126  -0.1457  -1.0385   C.ar      1 1      0.0000
     4 C4       0.7323  -0.2121   0.2233   C.ar      1 1      0.0000
     5 C5       1.5705  -0.3692   1.3215   C.ar      1 1      0.0000
     6 C6       2.9425  -0.4637   1.1746   C.ar      1 1      0.0000
     7 H7       3.1222  -0.1867  -2.1990   H         1 1      0.0000
     8 H8       0.6822  -0.0179  -1.9118   H         1 1      0.0000
     9 H9       1.1436  -0.4186   2.3177   H         1 1      0.0000
    10 H10      3.5854  -0.5878   2.0397   H         1 1      0.0000
    11 N11      4.9296  -0.4973  -0.2623   N.pl3     1 1      0.0000
    12 O12      5.3862  -0.4360  -1.3932   O.2       1 1      0.0000
    13 O13      5.6189  -0.6377   0.7359   O.2       1 1      0.0000
    14 CL3     -0.7837  -0.1200   0.4026   C.3       1 1      0.0000
    15 CL1     -1.4928  -1.3249  -0.2785   C.3       1 1      0.0000
    16 H16     -1.4930  -1.1644  -1.3634   H         1 1      0.0000
    17 H17     -0.8969  -2.2266  -0.0909   H         1 1      0.0000
    18 CL      -2.9375  -1.6042   0.1721   C.3       1 1      0.0000
    19 CL2     -3.6344  -0.2833   0.4424   C.3       1 1      0.0000
    20 H20     -4.6828  -0.4431   0.6853   H         1 1      0.0000
    21 H21     -3.1681   0.2349   1.2777   H         1 1      0.0000
    22 H22     -3.5835   0.3651  -0.4298   H         1 1      0.0000
    23 OL2     -1.0558  -0.0922   1.7982   O.3       1 1      0.0000
    24 H24     -0.9404  -0.9999   2.1737   H         1 1      0.0000
    25 N25     -3.6596  -2.3004  -0.8603   N.3       1 1      0.0000
    26 H26     -4.5921  -2.4935  -0.4948   H         1 1      0.0000
    27 C27     -3.8342  -1.6039  -2.1360   C.3       1 1      0.0000
    28 H28     -3.4186  -2.1881  -2.9544   H         1 1      0.0000
    29 H29     -4.8891  -1.4348  -2.3419   H         1 1      0.0000
    30 H30     -3.3330  -0.6384  -2.1201   H         1 1      0.0000
    31 OL1     -2.9190  -2.3304   1.3953   O.3       1 1      0.0000
    32 H32     -3.8472  -2.4878   1.6981   H         1 1      0.0000
    33 CL4     -1.1867   1.2223  -0.2401   C.2       1 1      0.0000
    34 C34     -1.2879   3.5719   0.0684   C.3       1 1      0.0000
    35 H35     -0.7322   3.7842  -0.8533   H         1 1      0.0000
    36 H36     -2.3580   3.6241  -0.1676   H         1 1      0.0000
    37 OL3     -1.6595   1.3160  -1.3393   O.2       1 1      0.0000
    38 OL4     -0.9459   2.2461   0.5698   O.3       1 1      0.0000
    39 C39     -0.9452   4.5632   1.1126   C.3       1 1      0.0000
    40 H40      0.1169   4.5261   1.3458   H         1 1      0.0000
    41 H41     -1.1844   5.5713   0.7808   H         1 1      0.0000
    42 H42     -1.5000   4.3669   2.0277   H         1 1      0.0000
@<TRIPOS>BOND
     1     1     2   ar
     2     1     6   ar
     3     1    11    1
     4     2     3   ar
     5     2     7    1
     6     3     4   ar
     7     3     8    1
     8     4     5   ar
     9     4    14    1
    10     5     6   ar
    11     5     9    1
    12     6    10    1
    13    11    12    2
    14    11    13    2
    15    14    15    1
    16    14    23    1
    17    14    33    1
    18    15    16    1
    19    15    17    1
    20    15    18    1
    21    18    19    1
    22    18    25    1
    23    18    31    1
    24    19    20    1
    25    19    21    1
    26    19    22    1
    27    23    24    1
    28    25    26    1
    29    25    27    1
    30    27    28    1
    31    27    29    1
    32    27    30    1
    33    31    32    1
    34    33    37    2
    35    33    38    1
    36    34    35    1
    37    34    36    1
    38    34    38    1
    39    34    39    1
    40    39    40    1
    41    39    41    1
    42    39    42    1
@<TRIPOS>SUBSTRUCTURE
     1 1           1 GROUP             0 ****  ****    0  
@<TRIPOS>MOLECULE
Molecule Name_00297
    42    42     1     0     0
SMALL
NO_CHARGES
****
Generated from the CSD

@<TRIPOS>ATOM
     1 C1       3.4317  -0.4181  -0.1105   C.ar      1 1      0.0000
     2 C2       2.6595  -0.1735  -1.2243   C.ar      1 1      0.0000
     3 C3       1.2921  -0.0406  -1.0647   C.ar      1 1      0.0000
     4 C4       0.6936  -0.1513   0.1854   C.ar      1 1      0.0000
     5 C5       1.5115  -0.3952   1.2831   C.ar      1 1      0.0000
     6 C6       2.8810  -0.5314   1.1467   C.ar      1 1      0.0000
     7 H7       3.1141  -0.0867  -2.2056   H         1 1      0.0000
     8 H8       0.6781   0.1548  -1.9371   H         1 1      0.0000
     9 H9       1.0702  -0.4806   2.2705   H         1 1      0.0000
    10 H10      3.5079  -0.7232   2.0112   H         1 1      0.0000
    11 N11      4.8841  -0.5621  -0.2679   N.pl3     1 1      0.0000
    12 O12      5.3572  -0.4589  -1.3889   O.2       1 1      0.0000
    13 O13      5.5550  -0.7788   0.7292   O.2       1 1      0.0000
    14 CL3     -0.8204  -0.0140   0.3524   C.3       1 1      0.0000
    15 CL1     -1.5629  -1.1556  -0.3985   C.3       1 1      0.0000
    16 H16     -1.5430  -0.9396  -1.4735   H         1 1      0.0000
    17 H17     -1.0019  -2.0868  -0.2513   H         1 1      0.0000
    18 CL      -3.0224  -1.4054   0.0206   C.3       1 1      0.0000
    19 CL2     -3.6746  -0.0760   0.3536   C.3       1 1      0.0000
    20 H20     -4.7311  -0.2099   0.5765   H         1 1      0.0000
    21 H21     -3.2005   0.3798   1.2203   H         1 1      0.0000
    22 H22     -3.5895   0.6154  -0.4821   H         1 1      0.0000
    23 OL2     -1.1094  -0.0487   1.7445   O.3       1 1      0.0000
    24 H24     -1.4076  -0.9576   1.9956   H         1 1      0.0000
    25 N25     -3.7557  -2.0187  -1.0555   N.3       1 1      0.0000
    26 H26     -3.7325  -1.3691  -1.8416   H         1 1      0.0000
    27 C27     -3.2630  -3.3062  -1.5479   C.3       1 1      0.0000
    28 H28     -3.2629  -4.0488  -0.7527   H         1 1      0.0000
    29 H29     -3.8903  -3.6755  -2.3565   H         1 1      0.0000
    30 H30     -2.2463  -3.2120  -1.9237   H         1 1      0.0000
    31 OL1     -3.0459  -2.1958   1.2032   O.3       1 1      0.0000
    32 H32     -3.9831  -2.3349   1.4869   H         1 1      0.0000
    33 CL4     -1.1672   1.3734  -0.2238   C.2       1 1      0.0000
    34 C34     -1.1892   3.7060   0.2058   C.3       1 1      0.0000
    35 H35     -0.6143   3.9455  -0.6973   H         1 1      0.0000
    36 H36     -2.2536   3.8089  -0.0390   H         1 1      0.0000
    37 OL3     -1.6221   1.5409  -1.3217   O.2       1 1      0.0000
    38 OL4     -0.9009   2.3445   0.6411   O.3       1 1      0.0000
    39 C39     -0.8251   4.6289   1.3041   C.3       1 1      0.0000
    40 H40      0.2319   4.5416   1.5468   H         1 1      0.0000
    41 H41     -1.0241   5.6608   1.0228   H         1 1      0.0000
    42 H42     -1.3984   4.4057   2.2015   H         1 1      0.0000
@<TRIPOS>BOND
     1     1     2   ar
     2     1     6   ar
     3     1    11    1
     4     2     3   ar
     5     2     7    1
     6     3     4   ar
     7     3     8    1
     8     4     5   ar
     9     4    14    1
    10     5     6   ar
    11     5     9    1
    12     6    10    1
    13    11    12    2
    14    11    13    2
    15    14    15    1
    16    14    23    1
    17    14    33    1
    18    15    16    1
    19    15    17    1
    20    15    18    1
    21    18    19    1
    22    18    25    1
    23    18    31    1
    24    19    20    1
    25    19    21    1
    26    19    22    1
    27    23    24    1
    28    25    26    1
    29    25    27    1
    30    27    28    1
    31    27    29    1
    32    27    30    1
    33    31    32    1
    34    33    37    2
    35    33    38    1
    36    34    35    1
    37    34    36    1
    38    34    38    1
    39    34    39    1
    40    39    40    1
    41    39    41    1
    42    39    42    1
@<TRIPOS>SUBSTRUCTURE
     1 1           1 GROUP             0 ****  ****    0  
@<TRIPOS>MOLECULE
Molecule Name_00298
    42    42     1     0     0
SMALL
NO_CHARGES
****
Generated from the CSD

@<TRIPOS>ATOM
     1 C1       3.4828  -0.3733  -0.1820   C.ar      1 1      0.0000
     2 C2       2.7363   0.4899  -0.9528   C.ar      1 1      0.0000
     3 C3       1.3658   0.5238  -0.7692   C.ar      1 1      0.0000
     4 C4       0.7392  -0.2911   0.1671   C.ar      1 1      0.0000
     5 C5       1.5317  -1.1449   0.9262   C.ar      1 1      0.0000
     6 C6       2.9038  -1.1950   0.7593   C.ar      1 1      0.0000
     7 H7       3.2129   1.1297  -1.6881   H         1 1      0.0000
     8 H8       0.7719   1.2031  -1.3708   H         1 1      0.0000
     9 H9       1.0683  -1.7874   1.6674   H         1 1      0.0000
    10 H10      3.5107  -1.8671   1.3570   H         1 1      0.0000
    11 N11      4.9380  -0.4186  -0.3690   N.pl3     1 1      0.0000
    12 O12      5.5860  -1.1892   0.3220   O.2       1 1      0.0000
    13 O13      5.4364   0.3162  -1.2073   O.2       1 1      0.0000
    14 CL3     -0.7780  -0.2559   0.3569   C.3       1 1      0.0000
    15 CL1     -1.4759  -1.2641  -0.5996   C.3       1 1      0.0000
    16 H16     -1.4971  -0.8339  -1.6082   H         1 1      0.0000
    17 H17     -0.8604  -2.1705  -0.6538   H         1 1      0.0000
    18 CL      -2.9075  -1.6804  -0.2181   C.3       1 1      0.0000
    19 CL2     -2.8701  -2.4189   1.1073   C.3       1 1      0.0000
    20 H20     -3.5529  -3.2658   1.0963   H         1 1      0.0000
    21 H21     -1.8692  -2.7931   1.3123   H         1 1      0.0000
    22 H22     -3.1596  -1.7606   1.9238   H         1 1      0.0000
    23 OL2     -1.0537  -0.5700   1.7162   O.3       1 1      0.0000
    24 H24     -1.9406  -0.2089   1.9636   H         1 1      0.0000
    25 N25     -3.7458  -0.5195  -0.0723   N.3       1 1      0.0000
    26 H26     -3.3305   0.0597   0.6573   H         1 1      0.0000
    27 C27     -3.9155   0.3315  -1.2513   C.3       1 1      0.0000
    28 H28     -4.9264   0.2481  -1.6450   H         1 1      0.0000
    29 H29     -3.7334   1.3750  -1.0032   H         1 1      0.0000
    30 H30     -3.2208   0.0439  -2.0377   H         1 1      0.0000
    31 OL1     -3.4118  -2.5860  -1.1924   O.3       1 1      0.0000
    32 H32     -4.3221  -2.8735  -0.9340   H         1 1      0.0000
    33 CL4     -1.1899   1.1994   0.0578   C.2       1 1      0.0000
    34 C34     -1.7936   3.2841   1.0150   C.3       1 1      0.0000
    35 H35     -2.4550   3.3949   0.1469   H         1 1      0.0000
    36 H36     -2.3448   3.6244   1.9003   H         1 1      0.0000
    37 OL3     -1.3052   1.6415  -1.0520   O.2       1 1      0.0000
    38 OL4     -1.3974   1.8896   1.1726   O.3       1 1      0.0000
    39 C39     -0.5686   4.0943   0.8319   C.3       1 1      0.0000
    40 H40     -0.0205   3.7708  -0.0505   H         1 1      0.0000
    41 H41     -0.8169   5.1465   0.7098   H         1 1      0.0000
    42 H42      0.0891   3.9990   1.6933   H         1 1      0.0000
@<TRIPOS>BOND
     1     1     2   ar
     2     1     6   ar
     3     1    11    1
     4     2     3   ar
     5     2     7    1
     6     3     4   ar
     7     3     8    1
     8     4     5   ar
     9     4    14    1
    10     5     6   ar
    11     5     9    1
    12     6    10    1
    13    11    12    2
    14    11    13    2
    15    14    15    1
    16    14    23    1
    17    14    33    1
    18    15    16    1
    19    15    17    1
    20    15    18    1
    21    18    19    1
    22    18    25    1
    23    18    31    1
    24    19    20    1
    25    19    21    1
    26    19    22    1
    27    23    24    1
    28    25    26    1
    29    25    27    1
    30    27    28    1
    31    27    29    1
    32    27    30    1
    33    31    32    1
    34    33    37    2
    35    33    38    1
    36    34    35    1
    37    34    36    1
    38    34    38    1
    39    34    39    1
    40    39    40    1
    41    39    41    1
    42    39    42    1
@<TRIPOS>SUBSTRUCTURE
     1 1           1 GROUP             0 ****  ****    0  
@<TRIPOS>MOLECULE
Molecule Name_00299
    42    42     1     0     0
SMALL
NO_CHARGES
****
Generated from the CSD

@<TRIPOS>ATOM
     1 C1       3.5838  -0.5245  -0.1548   C.ar      1 1      0.0000
     2 C2       2.8926   0.3894  -0.9187   C.ar      1 1      0.0000
     3 C3       1.5243   0.4947  -0.7468   C.ar      1 1      0.0000
     4 C4       0.8454  -0.2990   0.1711   C.ar      1 1      0.0000
     5 C5       1.5832  -1.2059   0.9238   C.ar      1 1      0.0000
     6 C6       2.9521  -1.3278   0.7683   C.ar      1 1      0.0000
     7 H7       3.4102   1.0134  -1.6397   H         1 1      0.0000
     8 H8       0.9738   1.2142  -1.3430   H         1 1      0.0000
     9 H9       1.0785  -1.8334   1.6507   H         1 1      0.0000
    10 H10      3.5159  -2.0406   1.3609   H         1 1      0.0000
    11 N11      5.0362  -0.6459  -0.3296   N.pl3     1 1      0.0000
    12 O12      5.6349  -1.4608   0.3551   O.2       1 1      0.0000
    13 O13      5.5817   0.0734  -1.1519   O.2       1 1      0.0000
    14 CL3     -0.6694  -0.1845   0.3479   C.3       1 1      0.0000
    15 CL1     -1.4115  -1.1388  -0.6304   C.3       1 1      0.0000
    16 H16     -1.3996  -0.6929  -1.6322   H         1 1      0.0000
    17 H17     -0.8454  -2.0763  -0.6932   H         1 1      0.0000
    18 CL      -2.8671  -1.4826  -0.2682   C.3       1 1      0.0000
    19 CL2     -2.8826  -2.2419   1.0459   C.3       1 1      0.0000
    20 H20     -3.6101  -3.0504   1.0156   H         1 1      0.0000
    21 H21     -1.9055  -2.6729   1.2539   H         1 1      0.0000
    22 H22     -3.1441  -1.5814   1.8699   H         1 1      0.0000
    23 OL2     -0.9749  -0.5037   1.6996   O.3       1 1      0.0000
    24 H24     -1.8433  -0.0988   1.9448   H         1 1      0.0000
    25 N25     -3.6429  -0.2803  -0.1117   N.3       1 1      0.0000
    26 H26     -3.2039   0.2645   0.6305   H         1 1      0.0000
    27 C27     -3.7548   0.5963  -1.2788   C.3       1 1      0.0000
    28 H28     -4.7639   0.5710  -1.6849   H         1 1      0.0000
    29 H29     -3.5226   1.6252  -1.0120   H         1 1      0.0000
    30 H30     -3.0664   0.2856  -2.0620   H         1 1      0.0000
    31 OL1     -3.4102  -2.3448  -1.2609   O.3       1 1      0.0000
    32 H32     -4.3372  -2.5863  -1.0151   H         1 1      0.0000
    33 CL4     -0.9991   1.2954   0.0679   C.2       1 1      0.0000
    34 C34     -1.4985   3.3950   1.0520   C.3       1 1      0.0000
    35 H35     -1.2036   3.9412   1.9565   H         1 1      0.0000
    36 H36     -0.9479   3.8266   0.2071   H         1 1      0.0000
    37 OL3     -1.0796   1.7597  -1.0358   O.2       1 1      0.0000
    38 OL4     -1.1799   1.9789   1.1914   O.3       1 1      0.0000
    39 C39     -2.9565   3.5207   0.8307   C.3       1 1      0.0000
    40 H40     -3.4808   2.6453   1.2081   H         1 1      0.0000
    41 H41     -3.3499   4.3975   1.3409   H         1 1      0.0000
    42 H42     -3.1786   3.6177  -0.2300   H         1 1      0.0000
@<TRIPOS>BOND
     1     1     2   ar
     2     1     6   ar
     3     1    11    1
     4     2     3   ar
     5     2     7    1
     6     3     4   ar
     7     3     8    1
     8     4     5   ar
     9     4    14    1
    10     5     6   ar
    11     5     9    1
    12     6    10    1
    13    11    12    2
    14    11    13    2
    15    14    15    1
    16    14    23    1
    17    14    33    1
    18    15    16    1
    19    15    17    1
    20    15    18    1
    21    18    19    1
    22    18    25    1
    23    18    31    1
    24    19    20    1
    25    19    21    1
    26    19    22    1
    27    23    24    1
    28    25    26    1
    29    25    27    1
    30    27    28    1
    31    27    29    1
    32    27    30    1
    33    31    32    1
    34    33    37    2
    35    33    38    1
    36    34    35    1
    37    34    36    1
    38    34    38    1
    39    34    39    1
    40    39    40    1
    41    39    41    1
    42    39    42    1
@<TRIPOS>SUBSTRUCTURE
     1 1           1 GROUP             0 ****  ****    0  
@<TRIPOS>MOLECULE
Molecule Name_00300
    42    42     1     0     0
SMALL
NO_CHARGES
****
Generated from the CSD

@<TRIPOS>ATOM
     1 C1       2.8651  -0.6725  -0.2083   C.ar      1 1      0.0000
     2 C2       2.1308  -1.3057   0.7697   C.ar      1 1      0.0000
     3 C3       0.8115  -0.9326   0.9520   C.ar      1 1      0.0000
     4 C4       0.2245   0.0600   0.1752   C.ar      1 1      0.0000
     5 C5       1.0015   0.6704  -0.8032   C.ar      1 1      0.0000
     6 C6       2.3226   0.3129  -1.0027   C.ar      1 1      0.0000
     7 H7       2.5776  -2.0805   1.3840   H         1 1      0.0000
     8 H8       0.2264  -1.4288   1.7186   H         1 1      0.0000
     9 H9       0.5661   1.4442  -1.4266   H         1 1      0.0000
    10 H10      2.9185   0.7983  -1.7686   H         1 1      0.0000
    11 N11      4.2666  -1.0594  -0.4100   N.pl3     1 1      0.0000
    12 O12      4.7330  -1.9349   0.3023   O.2       1 1      0.0000
    13 O13      4.9044  -0.4888  -1.2811   O.2       1 1      0.0000
    14 CL3     -1.2318   0.4748   0.3898   C.3       1 1      0.0000
    15 CL1     -2.1732  -0.3020  -0.5738   C.3       1 1      0.0000
    16 H16     -3.1196   0.2458  -0.6572   H         1 1      0.0000
    17 H17     -1.7186  -0.3045  -1.5722   H         1 1      0.0000
    18 CL      -2.4865  -1.7583  -0.1876   C.3       1 1      0.0000
    19 CL2     -3.4557  -2.3400  -1.2004   C.3       1 1      0.0000
    20 H20     -3.6938  -3.3734  -0.9570   H         1 1      0.0000
    21 H21     -4.3840  -1.7729  -1.2158   H         1 1      0.0000
    22 H22     -3.0280  -2.3174  -2.2006   H         1 1      0.0000
    23 OL2     -1.5636   0.2111   1.7474   O.3       1 1      0.0000
    24 H24     -2.4909   0.5070   1.9225   H         1 1      0.0000
    25 N25     -1.2843  -2.5499  -0.1968   N.3       1 1      0.0000
    26 H26     -1.5472  -3.4963   0.0779   H         1 1      0.0000
    27 C27     -0.5667  -2.6557  -1.4684   C.3       1 1      0.0000
    28 H28     -0.2566  -1.6736  -1.8192   H         1 1      0.0000
    29 H29      0.3226  -3.2730  -1.3592   H         1 1      0.0000
    30 H30     -1.1989  -3.1043  -2.2318   H         1 1      0.0000
    31 OL1     -3.1337  -1.7826   1.0790   O.3       1 1      0.0000
    32 H32     -3.3580  -2.7163   1.3157   H         1 1      0.0000
    33 CL4     -1.2637   1.9932   0.1244   C.2       1 1      0.0000
    34 C34     -1.3148   4.1411   1.1295   C.3       1 1      0.0000
    35 H35     -1.9316   4.4348   0.2712   H         1 1      0.0000
    36 H36     -1.7570   4.5902   2.0275   H         1 1      0.0000
    37 OL3     -1.2697   2.4745  -0.9750   O.2       1 1      0.0000
    38 OL4     -1.2835   2.6887   1.2549   O.3       1 1      0.0000
    39 C39      0.0742   4.6191   0.9491   C.3       1 1      0.0000
    40 H40      0.5176   4.1871   0.0544   H         1 1      0.0000
    41 H41      0.0996   5.7024   0.8507   H         1 1      0.0000
    42 H42      0.6913   4.3416   1.8011   H         1 1      0.0000
@<TRIPOS>BOND
     1     1     2   ar
     2     1     6   ar
     3     1    11    1
     4     2     3   ar
     5     2     7    1
     6     3     4   ar
     7     3     8    1
     8     4     5   ar
     9     4    14    1
    10     5     6   ar
    11     5     9    1
    12     6    10    1
    13    11    12    2
    14    11    13    2
    15    14    15    1
    16    14    23    1
    17    14    33    1
    18    15    16    1
    19    15    17    1
    20    15    18    1
    21    18    19    1
    22    18    25    1
    23    18    31    1
    24    19    20    1
    25    19    21    1
    26    19    22    1
    27    23    24    1
    28    25    26    1
    29    25    27    1
    30    27    28    1
    31    27    29    1
    32    27    30    1
    33    31    32    1
    34    33    37    2
    35    33    38    1
    36    34    35    1
    37    34    36    1
    38    34    38    1
    39    34    39    1
    40    39    40    1
    41    39    41    1
    42    39    42    1
@<TRIPOS>SUBSTRUCTURE
     1 1           1 GROUP             0 ****  ****    0  
@<TRIPOS>MOLECULE
Molecule Name_00301
    42    42     1     0     0
SMALL
NO_CHARGES
****
Generated from the CSD

@<TRIPOS>ATOM
     1 C1       2.9528  -0.8315  -0.1729   C.ar      1 1      0.0000
     2 C2       2.1704  -1.4271   0.7913   C.ar      1 1      0.0000
     3 C3       0.8720  -0.9806   0.9581   C.ar      1 1      0.0000
     4 C4       0.3530   0.0479   0.1794   C.ar      1 1      0.0000
     5 C5       1.1768   0.6182  -0.7847   C.ar      1 1      0.0000
     6 C6       2.4781   0.1873  -0.9686   C.ar      1 1      0.0000
     7 H7       2.5639  -2.2293   1.4068   H         1 1      0.0000
     8 H8       0.2492  -1.4468   1.7137   H         1 1      0.0000
     9 H9       0.7947   1.4188  -1.4093   H         1 1      0.0000
    10 H10      3.1111   0.6420  -1.7235   H         1 1      0.0000
    11 N11      4.3328  -1.2964  -0.3581   N.pl3     1 1      0.0000
    12 O12      4.7389  -2.2007   0.3551   O.2       1 1      0.0000
    13 O13      5.0138  -0.7583  -1.2171   O.2       1 1      0.0000
    14 CL3     -1.0802   0.5436   0.3770   C.3       1 1      0.0000
    15 CL1     -2.0508  -0.1734  -0.6039   C.3       1 1      0.0000
    16 H16     -2.9633   0.4278  -0.6967   H         1 1      0.0000
    17 H17     -1.5834  -0.1965  -1.5961   H         1 1      0.0000
    18 CL      -2.4516  -1.6115  -0.2307   C.3       1 1      0.0000
    19 CL2     -3.4381  -2.1319  -1.2600   C.3       1 1      0.0000
    20 H20     -3.7379  -3.1513  -1.0260   H         1 1      0.0000
    21 H21     -4.3325  -1.5128  -1.2844   H         1 1      0.0000
    22 H22     -2.9962  -2.1283  -2.2541   H         1 1      0.0000
    23 OL2     -1.4450   0.2921   1.7283   O.3       1 1      0.0000
    24 H24     -2.3564   0.6392   1.8927   H         1 1      0.0000
    25 N25     -1.2962  -2.4701  -0.2285   N.3       1 1      0.0000
    26 H26     -1.6162  -3.4015   0.0369   H         1 1      0.0000
    27 C27     -0.5683  -2.6099  -1.4910   C.3       1 1      0.0000
    28 H28     -0.1982  -1.6451  -1.8317   H         1 1      0.0000
    29 H29      0.2829  -3.2772  -1.3735   H         1 1      0.0000
    30 H30     -1.2144  -3.0178  -2.2655   H         1 1      0.0000
    31 OL1     -3.1165  -1.6056   1.0269   O.3       1 1      0.0000
    32 H32     -3.3966  -2.5263   1.2549   H         1 1      0.0000
    33 CL4     -1.0222   2.0628   0.1203   C.2       1 1      0.0000
    34 C34     -0.9652   4.2048   1.1376   C.3       1 1      0.0000
    35 H35     -0.5370   4.6435   2.0473   H         1 1      0.0000
    36 H36     -0.3259   4.4946   0.2945   H         1 1      0.0000
    37 OL3     -0.9858   2.5494  -0.9762   O.2       1 1      0.0000
    38 OL4     -1.0181   2.7523   1.2546   O.3       1 1      0.0000
    39 C39     -2.3436   4.7019   0.9293   C.3       1 1      0.0000
    40 H40     -2.9828   4.4283   1.7661   H         1 1      0.0000
    41 H41     -2.3527   5.7859   0.8361   H         1 1      0.0000
    42 H42     -2.7728   4.2801   0.0229   H         1 1      0.0000
@<TRIPOS>BOND
     1     1     2   ar
     2     1     6   ar
     3     1    11    1
     4     2     3   ar
     5     2     7    1
     6     3     4   ar
     7     3     8    1
     8     4     5   ar
     9     4    14    1
    10     5     6   ar
    11     5     9    1
    12     6    10    1
    13    11    12    2
    14    11    13    2
    15    14    15    1
    16    14    23    1
    17    14    33    1
    18    15    16    1
    19    15    17    1
    20    15    18    1
    21    18    19    1
    22    18    25    1
    23    18    31    1
    24    19    20    1
    25    19    21    1
    26    19    22    1
    27    23    24    1
    28    25    26    1
    29    25    27    1
    30    27    28    1
    31    27    29    1
    32    27    30    1
    33    31    32    1
    34    33    37    2
    35    33    38    1
    36    34    35    1
    37    34    36    1
    38    34    38    1
    39    34    39    1
    40    39    40    1
    41    39    41    1
    42    39    42    1
@<TRIPOS>SUBSTRUCTURE
     1 1           1 GROUP             0 ****  ****    0  
@<TRIPOS>MOLECULE
Molecule Name_00302
    42    42     1     0     0
SMALL
NO_CHARGES
****
Generated from the CSD

@<TRIPOS>ATOM
     1 C1       3.0243  -0.5283  -0.1844   C.ar      1 1      0.0000
     2 C2       2.1835   0.0472  -1.1109   C.ar      1 1      0.0000
     3 C3       0.8720   0.2962  -0.7490   C.ar      1 1      0.0000
     4 C4       0.3959  -0.0237   0.5176   C.ar      1 1      0.0000
     5 C5       1.2802  -0.6001   1.4227   C.ar      1 1      0.0000
     6 C6       2.5956  -0.8577   1.0822   C.ar      1 1      0.0000
     7 H7       2.5421   0.2999  -2.1032   H         1 1      0.0000
     8 H8       0.2049   0.7517  -1.4726   H         1 1      0.0000
     9 H9       0.9354  -0.8545   2.4194   H         1 1      0.0000
    10 H10      3.2751  -1.3095   1.7974   H         1 1      0.0000
    11 N11      4.4181  -0.7983  -0.5577   N.pl3     1 1      0.0000
    12 O12      5.1511  -1.3089   0.2748   O.2       1 1      0.0000
    13 O13      4.7830  -0.5004  -1.6844   O.2       1 1      0.0000
    14 CL3     -1.0585   0.2446   0.9070   C.3       1 1      0.0000
    15 CL1     -2.0094  -0.0319  -0.2921   C.3       1 1      0.0000
    16 H16     -2.9663   0.4698  -0.1041   H         1 1      0.0000
    17 H17     -1.5783   0.4316  -1.1880   H         1 1      0.0000
    18 CL      -2.2899  -1.5118  -0.6073   C.3       1 1      0.0000
    19 CL2     -3.4667  -1.9802   0.2287   C.3       1 1      0.0000
    20 H20     -3.7300  -3.0069  -0.0168   H         1 1      0.0000
    21 H21     -3.2283  -1.9359   1.2894   H         1 1      0.0000
    22 H22     -4.3392  -1.3549   0.0511   H         1 1      0.0000
    23 OL2     -1.3751  -0.5939   2.0111   O.3       1 1      0.0000
    24 H24     -2.3008  -0.4115   2.3075   H         1 1      0.0000
    25 N25     -2.6225  -1.6744  -1.9983   N.3       1 1      0.0000
    26 H26     -1.8285  -1.3301  -2.5380   H         1 1      0.0000
    27 C27     -2.8990  -3.0352  -2.4621   C.3       1 1      0.0000
    28 H28     -3.7641  -3.4494  -1.9484   H         1 1      0.0000
    29 H29     -3.1029  -3.0444  -3.5308   H         1 1      0.0000
    30 H30     -2.0486  -3.6871  -2.2736   H         1 1      0.0000
    31 OL1     -1.1648  -2.2968  -0.2307   O.3       1 1      0.0000
    32 H32     -1.3754  -3.2548  -0.3567   H         1 1      0.0000
    33 CL4     -1.0954   1.7238   1.3404   C.2       1 1      0.0000
    34 C34     -1.1125   3.9713   0.5821   C.3       1 1      0.0000
    35 H35     -2.0184   4.2250   1.1463   H         1 1      0.0000
    36 H36     -0.2476   4.2548   1.1945   H         1 1      0.0000
    37 OL3     -1.1325   2.0785   2.4863   O.2       1 1      0.0000
    38 OL4     -1.0807   2.5420   0.2951   O.3       1 1      0.0000
    39 C39     -1.0897   4.7014  -0.7051   C.3       1 1      0.0000
    40 H40     -1.9501   4.4345  -1.3151   H         1 1      0.0000
    41 H41     -1.1123   5.7765  -0.5391   H         1 1      0.0000
    42 H42     -0.1889   4.4641  -1.2672   H         1 1      0.0000
@<TRIPOS>BOND
     1     1     2   ar
     2     1     6   ar
     3     1    11    1
     4     2     3   ar
     5     2     7    1
     6     3     4   ar
     7     3     8    1
     8     4     5   ar
     9     4    14    1
    10     5     6   ar
    11     5     9    1
    12     6    10    1
    13    11    12    2
    14    11    13    2
    15    14    15    1
    16    14    23    1
    17    14    33    1
    18    15    16    1
    19    15    17    1
    20    15    18    1
    21    18    19    1
    22    18    25    1
    23    18    31    1
    24    19    20    1
    25    19    21    1
    26    19    22    1
    27    23    24    1
    28    25    26    1
    29    25    27    1
    30    27    28    1
    31    27    29    1
    32    27    30    1
    33    31    32    1
    34    33    37    2
    35    33    38    1
    36    34    35    1
    37    34    36    1
    38    34    38    1
    39    34    39    1
    40    39    40    1
    41    39    41    1
    42    39    42    1
@<TRIPOS>SUBSTRUCTURE
     1 1           1 GROUP             0 ****  ****    0  
@<TRIPOS>MOLECULE
Molecule Name_00303
    42    42     1     0     0
SMALL
NO_CHARGES
****
Generated from the CSD

@<TRIPOS>ATOM
     1 C1       3.0902  -0.4948  -0.1829   C.ar      1 1      0.0000
     2 C2       2.2242   0.0355  -1.1131   C.ar      1 1      0.0000
     3 C3       0.9035   0.2305  -0.7515   C.ar      1 1      0.0000
     4 C4       0.4431  -0.0987   0.5185   C.ar      1 1      0.0000
     5 C5       1.3525  -0.6282   1.4273   C.ar      1 1      0.0000
     6 C6       2.6776  -0.8314   1.0872   C.ar      1 1      0.0000
     7 H7       2.5704   0.2949  -2.1081   H         1 1      0.0000
     8 H8       0.2165   0.6502  -1.4781   H         1 1      0.0000
     9 H9       1.0202  -0.8886   2.4267   H         1 1      0.0000
    10 H10      3.3768  -1.2470   1.8053   H         1 1      0.0000
    11 N11      4.4940  -0.7073  -0.5558   N.pl3     1 1      0.0000
    12 O12      5.2494  -1.1783   0.2801   O.2       1 1      0.0000
    13 O13      4.8444  -0.4036  -1.6855   O.2       1 1      0.0000
    14 CL3     -1.0212   0.1096   0.9076   C.3       1 1      0.0000
    15 CL1     -1.9605  -0.2189  -0.2875   C.3       1 1      0.0000
    16 H16     -2.9377   0.2435  -0.1032   H         1 1      0.0000
    17 H17     -1.5502   0.2538  -1.1884   H         1 1      0.0000
    18 CL      -2.1779  -1.7124  -0.5880   C.3       1 1      0.0000
    19 CL2     -3.3275  -2.2244   0.2605   C.3       1 1      0.0000
    20 H20     -3.6273  -3.2209  -0.0571   H         1 1      0.0000
    21 H21     -3.0406  -2.2747   1.3087   H         1 1      0.0000
    22 H22     -4.1910  -1.5678   0.1765   H         1 1      0.0000
    23 OL2     -1.2998  -0.7318   2.0197   O.3       1 1      0.0000
    24 H24     -2.2322  -0.5873   2.3159   H         1 1      0.0000
    25 N25     -2.5125  -1.9018  -1.9751   N.3       1 1      0.0000
    26 H26     -2.6314  -2.9045  -2.1199   H         1 1      0.0000
    27 C27     -3.7302  -1.2506  -2.4612   C.3       1 1      0.0000
    28 H28     -3.6673  -0.1718  -2.3348   H         1 1      0.0000
    29 H29     -3.8840  -1.4597  -3.5177   H         1 1      0.0000
    30 H30     -4.6017  -1.6056  -1.9151   H         1 1      0.0000
    31 OL1     -1.0170  -2.4440  -0.2126   O.3       1 1      0.0000
    32 H32     -1.1663  -3.4069  -0.3820   H         1 1      0.0000
    33 CL4     -1.1220   1.5896   1.3277   C.2       1 1      0.0000
    34 C34     -1.2377   3.8273   0.5494   C.3       1 1      0.0000
    35 H35     -2.1532   4.0465   1.1126   H         1 1      0.0000
    36 H36     -0.3853   4.1537   1.1579   H         1 1      0.0000
    37 OL3     -1.1733   1.9528   2.4705   O.2       1 1      0.0000
    38 OL4     -1.1440   2.3982   0.2752   O.3       1 1      0.0000
    39 C39     -1.2481   4.5461  -0.7444   C.3       1 1      0.0000
    40 H40     -2.0968   4.2364  -1.3508   H         1 1      0.0000
    41 H41     -1.3173   5.6205  -0.5881   H         1 1      0.0000
    42 H42     -0.3385   4.3431  -1.3057   H         1 1      0.0000
@<TRIPOS>BOND
     1     1     2   ar
     2     1     6   ar
     3     1    11    1
     4     2     3   ar
     5     2     7    1
     6     3     4   ar
     7     3     8    1
     8     4     5   ar
     9     4    14    1
    10     5     6   ar
    11     5     9    1
    12     6    10    1
    13    11    12    2
    14    11    13    2
    15    14    15    1
    16    14    23    1
    17    14    33    1
    18    15    16    1
    19    15    17    1
    20    15    18    1
    21    18    19    1
    22    18    25    1
    23    18    31    1
    24    19    20    1
    25    19    21    1
    26    19    22    1
    27    23    24    1
    28    25    26    1
    29    25    27    1
    30    27    28    1
    31    27    29    1
    32    27    30    1
    33    31    32    1
    34    33    37    2
    35    33    38    1
    36    34    35    1
    37    34    36    1
    38    34    38    1
    39    34    39    1
    40    39    40    1
    41    39    41    1
    42    39    42    1
@<TRIPOS>SUBSTRUCTURE
     1 1           1 GROUP             0 ****  ****    0  
@<TRIPOS>MOLECULE
Molecule Name_00304
    42    42     1     0     0
SMALL
NO_CHARGES
****
Generated from the CSD

@<TRIPOS>ATOM
     1 C1       2.9683  -0.5950  -0.1787   C.ar      1 1      0.0000
     2 C2       2.1127  -0.0514  -1.1109   C.ar      1 1      0.0000
     3 C3       0.8041   0.1997  -0.7404   C.ar      1 1      0.0000
     4 C4       0.3452  -0.0867   0.5405   C.ar      1 1      0.0000
     5 C5       1.2440  -0.6314   1.4509   C.ar      1 1      0.0000
     6 C6       2.5570  -0.8906   1.1019   C.ar      1 1      0.0000
     7 H7       2.4578   0.1750  -2.1144   H         1 1      0.0000
     8 H8       0.1254   0.6302  -1.4686   H         1 1      0.0000
     9 H9       0.9129  -0.8593   2.4586   H         1 1      0.0000
    10 H10      3.2478  -1.3175   1.8215   H         1 1      0.0000
    11 N11      4.3593  -0.8669  -0.5610   N.pl3     1 1      0.0000
    12 O12      5.1055  -1.3489   0.2769   O.2       1 1      0.0000
    13 O13      4.7087  -0.5991  -1.7000   O.2       1 1      0.0000
    14 CL3     -1.1062   0.1837   0.9396   C.3       1 1      0.0000
    15 CL1     -2.0695  -0.1337  -0.2392   C.3       1 1      0.0000
    16 H16     -3.0268   0.3689  -0.0551   H         1 1      0.0000
    17 H17     -1.6513   0.3047  -1.1537   H         1 1      0.0000
    18 CL      -2.3458  -1.6238  -0.5064   C.3       1 1      0.0000
    19 CL2     -3.5021  -2.0757   0.3667   C.3       1 1      0.0000
    20 H20     -3.8125  -3.0847   0.1037   H         1 1      0.0000
    21 H21     -3.2171  -2.0715   1.4167   H         1 1      0.0000
    22 H22     -4.3582  -1.4152   0.2452   H         1 1      0.0000
    23 OL2     -1.4038  -0.6243   2.0714   O.3       1 1      0.0000
    24 H24     -2.3271  -0.4393   2.3737   H         1 1      0.0000
    25 N25     -2.7056  -1.8282  -1.8851   N.3       1 1      0.0000
    26 H26     -3.5349  -1.2623  -2.0649   H         1 1      0.0000
    27 C27     -1.7098  -1.4632  -2.8941   C.3       1 1      0.0000
    28 H28     -0.7123  -1.7598  -2.5766   H         1 1      0.0000
    29 H29     -1.9235  -1.9532  -3.8418   H         1 1      0.0000
    30 H30     -1.7065  -0.3882  -3.0616   H         1 1      0.0000
    31 OL1     -1.2078  -2.3903  -0.1308   O.3       1 1      0.0000
    32 H32     -1.3947  -3.3501  -0.2785   H         1 1      0.0000
    33 CL4     -1.1476   1.6746   1.3303   C.2       1 1      0.0000
    34 C34     -1.1888   3.8989   0.5075   C.3       1 1      0.0000
    35 H35     -2.0896   4.1632   1.0751   H         1 1      0.0000
    36 H36     -0.3185   4.2055   1.1008   H         1 1      0.0000
    37 OL3     -1.1734   2.0622   2.4659   O.2       1 1      0.0000
    38 OL4     -1.1509   2.4621   0.2617   O.3       1 1      0.0000
    39 C39     -1.1864   4.5914  -0.8005   C.3       1 1      0.0000
    40 H40     -2.0523   4.3014  -1.3921   H         1 1      0.0000
    41 H41     -1.2141   5.6706  -0.6656   H         1 1      0.0000
    42 H42     -0.2908   4.3435  -1.3665   H         1 1      0.0000
@<TRIPOS>BOND
     1     1     2   ar
     2     1     6   ar
     3     1    11    1
     4     2     3   ar
     5     2     7    1
     6     3     4   ar
     7     3     8    1
     8     4     5   ar
     9     4    14    1
    10     5     6   ar
    11     5     9    1
    12     6    10    1
    13    11    12    2
    14    11    13    2
    15    14    15    1
    16    14    23    1
    17    14    33    1
    18    15    16    1
    19    15    17    1
    20    15    18    1
    21    18    19    1
    22    18    25    1
    23    18    31    1
    24    19    20    1
    25    19    21    1
    26    19    22    1
    27    23    24    1
    28    25    26    1
    29    25    27    1
    30    27    28    1
    31    27    29    1
    32    27    30    1
    33    31    32    1
    34    33    37    2
    35    33    38    1
    36    34    35    1
    37    34    36    1
    38    34    38    1
    39    34    39    1
    40    39    40    1
    41    39    41    1
    42    39    42    1
@<TRIPOS>SUBSTRUCTURE
     1 1           1 GROUP             0 ****  ****    0  
@<TRIPOS>MOLECULE
Molecule Name_00305
    42    42     1     0     0
SMALL
NO_CHARGES
****
Generated from the CSD

@<TRIPOS>ATOM
     1 C1       2.7241  -0.6460  -0.4034   C.ar      1 1      0.0000
     2 C2       2.1624  -0.9961   0.8043   C.ar      1 1      0.0000
     3 C3       0.8588  -0.6134   1.0630   C.ar      1 1      0.0000
     4 C4       0.1181   0.1115   0.1361   C.ar      1 1      0.0000
     5 C5       0.7234   0.4406  -1.0717   C.ar      1 1      0.0000
     6 C6       2.0256   0.0681  -1.3515   C.ar      1 1      0.0000
     7 H7       2.7303  -1.5600   1.5369   H         1 1      0.0000
     8 H8       0.4090  -0.8880   2.0109   H         1 1      0.0000
     9 H9       0.1656   1.0012  -1.8144   H         1 1      0.0000
    10 H10      2.4868   0.3327  -2.2972   H         1 1      0.0000
    11 N11      4.1075  -1.0457  -0.6885   N.pl3     1 1      0.0000
    12 O12      4.5913  -0.7277  -1.7637   O.2       1 1      0.0000
    13 O13      4.7134  -1.6785   0.1621   O.2       1 1      0.0000
    14 CL3     -1.3194   0.5405   0.4337   C.3       1 1      0.0000
    15 CL1     -2.3115  -0.1358  -0.5545   C.3       1 1      0.0000
    16 H16     -3.3352   0.0639  -0.2156   H         1 1      0.0000
    17 H17     -2.2023   0.3439  -1.5350   H         1 1      0.0000
    18 CL      -2.1495  -1.6543  -0.7445   C.3       1 1      0.0000
    19 CL2     -1.2128  -1.9086  -1.9113   C.3       1 1      0.0000
    20 H20     -1.4433  -2.8574  -2.3912   H         1 1      0.0000
    21 H21     -1.3025  -1.1211  -2.6566   H         1 1      0.0000
    22 H22     -0.1784  -1.9412  -1.5755   H         1 1      0.0000
    23 OL2     -1.6124   0.1773   1.7771   O.3       1 1      0.0000
    24 H24     -2.5257   0.4790   2.0074   H         1 1      0.0000
    25 N25     -1.5823  -2.2503   0.4367   N.3       1 1      0.0000
    26 H26     -2.2166  -2.0459   1.2089   H         1 1      0.0000
    27 C27     -1.3802  -3.7001   0.4194   C.3       1 1      0.0000
    28 H28     -0.7078  -3.9862  -0.3867   H         1 1      0.0000
    29 H29     -0.9480  -4.0404   1.3581   H         1 1      0.0000
    30 H30     -2.3250  -4.2195   0.2732   H         1 1      0.0000
    31 OL1     -3.4082  -2.2255  -1.0807   O.3       1 1      0.0000
    32 H32     -3.2943  -3.1922  -1.2556   H         1 1      0.0000
    33 CL4     -1.3218   2.0756   0.2899   C.2       1 1      0.0000
    34 C34     -0.7442   4.1262   1.3330   C.3       1 1      0.0000
    35 H35     -0.1529   4.4725   0.4763   H         1 1      0.0000
    36 H36     -1.7548   4.5402   1.2302   H         1 1      0.0000
    37 OL3     -1.7503   2.6511  -0.6722   O.2       1 1      0.0000
    38 OL4     -0.7957   2.6691   1.3544   O.3       1 1      0.0000
    39 C39     -0.1292   4.5852   2.5985   C.3       1 1      0.0000
    40 H40      0.8782   4.1880   2.7041   H         1 1      0.0000
    41 H41     -0.0699   5.6712   2.6268   H         1 1      0.0000
    42 H42     -0.7150   4.2554   3.4539   H         1 1      0.0000
@<TRIPOS>BOND
     1     1     2   ar
     2     1     6   ar
     3     1    11    1
     4     2     3   ar
     5     2     7    1
     6     3     4   ar
     7     3     8    1
     8     4     5   ar
     9     4    14    1
    10     5     6   ar
    11     5     9    1
    12     6    10    1
    13    11    12    2
    14    11    13    2
    15    14    15    1
    16    14    23    1
    17    14    33    1
    18    15    16    1
    19    15    17    1
    20    15    18    1
    21    18    19    1
    22    18    25    1
    23    18    31    1
    24    19    20    1
    25    19    21    1
    26    19    22    1
    27    23    24    1
    28    25    26    1
    29    25    27    1
    30    27    28    1
    31    27    29    1
    32    27    30    1
    33    31    32    1
    34    33    37    2
    35    33    38    1
    36    34    35    1
    37    34    36    1
    38    34    38    1
    39    34    39    1
    40    39    40    1
    41    39    41    1
    42    39    42    1
@<TRIPOS>SUBSTRUCTURE
     1 1           1 GROUP             0 ****  ****    0  
@<TRIPOS>MOLECULE
Molecule Name_00306
    42    42     1     0     0
SMALL
NO_CHARGES
****
Generated from the CSD

@<TRIPOS>ATOM
     1 C1       3.5958  -0.2811  -0.1340   C.ar      1 1      0.0000
     2 C2       2.7126   0.1256  -1.1092   C.ar      1 1      0.0000
     3 C3       1.3567  -0.0045  -0.8693   C.ar      1 1      0.0000
     4 C4       0.8788  -0.5346   0.3240   C.ar      1 1      0.0000
     5 C5       1.8058  -0.9291   1.2823   C.ar      1 1      0.0000
     6 C6       3.1660  -0.8080   1.0636   C.ar      1 1      0.0000
     7 H7       3.0726   0.5392  -2.0454   H         1 1      0.0000
     8 H8       0.6552   0.3163  -1.6317   H         1 1      0.0000
     9 H9       1.4592  -1.3410   2.2242   H         1 1      0.0000
    10 H10      3.8790  -1.1212   1.8191   H         1 1      0.0000
    11 N11      5.0373  -0.1489  -0.3780   N.pl3     1 1      0.0000
    12 O12      5.8076  -0.5139   0.4964   O.2       1 1      0.0000
    13 O13      5.4025   0.3203  -1.4446   O.2       1 1      0.0000
    14 CL3     -0.6218  -0.6854   0.5777   C.3       1 1      0.0000
    15 CL1     -1.3633  -1.0874  -0.7288   C.3       1 1      0.0000
    16 H16     -1.0329  -0.4249  -1.5379   H         1 1      0.0000
    17 H17     -1.0525  -2.1030  -1.0030   H         1 1      0.0000
    18 CL      -2.9009  -1.0567  -0.6723   C.3       1 1      0.0000
    19 CL2     -3.3536  -1.5171   0.7013   C.3       1 1      0.0000
    20 H20     -4.4375  -1.6025   0.7416   H         1 1      0.0000
    21 H21     -2.9279  -2.4890   0.9420   H         1 1      0.0000
    22 H22     -3.0406  -0.8108   1.4673   H         1 1      0.0000
    23 OL2     -0.7954  -1.6734   1.5857   O.3       1 1      0.0000
    24 H24     -1.3035  -1.2867   2.3410   H         1 1      0.0000
    25 N25     -3.3846   0.2814  -0.8894   N.3       1 1      0.0000
    26 H26     -3.0484   0.5759  -1.8063   H         1 1      0.0000
    27 C27     -4.8358   0.4741  -0.8822   C.3       1 1      0.0000
    28 H28     -5.2595   0.1771   0.0749   H         1 1      0.0000
    29 H29     -5.0870   1.5186  -1.0546   H         1 1      0.0000
    30 H30     -5.3078  -0.1210  -1.6612   H         1 1      0.0000
    31 OL1     -3.4271  -1.9768  -1.6211   O.3       1 1      0.0000
    32 H32     -4.4136  -1.9919  -1.5522   H         1 1      0.0000
    33 CL4     -1.0841   0.6891   1.1013   C.2       1 1      0.0000
    34 C34     -1.5863   2.9285   0.5019   C.3       1 1      0.0000
    35 H35     -2.5857   2.8958   0.9531   H         1 1      0.0000
    36 H36     -0.8986   3.3520   1.2442   H         1 1      0.0000
    37 OL3     -1.3419   0.9078   2.2528   O.2       1 1      0.0000
    38 OL4     -1.1584   1.5863   0.1257   O.3       1 1      0.0000
    39 C39     -1.6026   3.7668  -0.7177   C.3       1 1      0.0000
    40 H40     -2.2905   3.3602  -1.4561   H         1 1      0.0000
    41 H41     -1.9174   4.7817  -0.4840   H         1 1      0.0000
    42 H42     -0.6126   3.8140  -1.1666   H         1 1      0.0000
@<TRIPOS>BOND
     1     1     2   ar
     2     1     6   ar
     3     1    11    1
     4     2     3   ar
     5     2     7    1
     6     3     4   ar
     7     3     8    1
     8     4     5   ar
     9     4    14    1
    10     5     6   ar
    11     5     9    1
    12     6    10    1
    13    11    12    2
    14    11    13    2
    15    14    15    1
    16    14    23    1
    17    14    33    1
    18    15    16    1
    19    15    17    1
    20    15    18    1
    21    18    19    1
    22    18    25    1
    23    18    31    1
    24    19    20    1
    25    19    21    1
    26    19    22    1
    27    23    24    1
    28    25    26    1
    29    25    27    1
    30    27    28    1
    31    27    29    1
    32    27    30    1
    33    31    32    1
    34    33    37    2
    35    33    38    1
    36    34    35    1
    37    34    36    1
    38    34    38    1
    39    34    39    1
    40    39    40    1
    41    39    41    1
    42    39    42    1
@<TRIPOS>SUBSTRUCTURE
     1 1           1 GROUP             0 ****  ****    0  
@<TRIPOS>MOLECULE
Molecule Name_00307
    42    42     1     0     0
SMALL
NO_CHARGES
****
Generated from the CSD

@<TRIPOS>ATOM
     1 C1       3.3870  -0.3953  -0.1793   C.ar      1 1      0.0000
     2 C2       2.8115  -0.8294   0.9942   C.ar      1 1      0.0000
     3 C3       1.4413  -0.7127   1.1415   C.ar      1 1      0.0000
     4 C4       0.6476  -0.1689   0.1377   C.ar      1 1      0.0000
     5 C5       1.2698   0.2533  -1.0319   C.ar      1 1      0.0000
     6 C6       2.6383   0.1459  -1.2006   C.ar      1 1      0.0000
     7 H7       3.4199  -1.2539   1.7859   H         1 1      0.0000
     8 H8       0.9809  -1.0550   2.0619   H         1 1      0.0000
     9 H9       0.6728   0.6764  -1.8328   H         1 1      0.0000
    10 H10      3.1117   0.4807  -2.1177   H         1 1      0.0000
    11 N11      4.8406  -0.5132  -0.3464   N.pl3     1 1      0.0000
    12 O12      5.3358  -0.1239  -1.3925   O.2       1 1      0.0000
    13 O13      5.4905  -0.9953   0.5681   O.2       1 1      0.0000
    14 CL3     -0.8657  -0.0330   0.3122   C.3       1 1      0.0000
    15 CL1     -1.6206  -0.9135  -0.7237   C.3       1 1      0.0000
    16 H16     -1.5664  -0.4258  -1.7045   H         1 1      0.0000
    17 H17     -1.0906  -1.8697  -0.8148   H         1 1      0.0000
    18 CL      -3.0971  -1.2134  -0.4104   C.3       1 1      0.0000
    19 CL2     -3.8659  -1.3232  -1.7144   C.3       1 1      0.0000
    20 H20     -4.8511  -1.7531  -1.5462   H         1 1      0.0000
    21 H21     -3.9968  -0.3433  -2.1687   H         1 1      0.0000
    22 H22     -3.3360  -1.9570  -2.4224   H         1 1      0.0000
    23 OL2     -1.1870  -0.4232   1.6415   O.3       1 1      0.0000
    24 H24     -2.1413  -0.2329   1.8183   H         1 1      0.0000
    25 N25     -3.2166  -2.4605   0.2984   N.3       1 1      0.0000
    26 H26     -4.2065  -2.5930   0.5057   H         1 1      0.0000
    27 C27     -2.7579  -3.6662  -0.3937   C.3       1 1      0.0000
    28 H28     -1.6710  -3.6999  -0.4304   H         1 1      0.0000
    29 H29     -3.1076  -4.5608   0.1172   H         1 1      0.0000
    30 H30     -3.1324  -3.6908  -1.4149   H         1 1      0.0000
    31 OL1     -3.6554  -0.1273   0.3193   O.3       1 1      0.0000
    32 H32     -4.6110  -0.3085   0.4986   H         1 1      0.0000
    33 CL4     -1.1629   1.4671   0.1165   C.2       1 1      0.0000
    34 C34     -1.4321   3.5540   1.2113   C.3       1 1      0.0000
    35 H35     -2.1806   3.7671   0.4381   H         1 1      0.0000
    36 H36     -1.8336   3.9047   2.1701   H         1 1      0.0000
    37 OL3     -1.3685   1.9684  -0.9544   O.2       1 1      0.0000
    38 OL4     -1.1617   2.1224   1.2709   O.3       1 1      0.0000
    39 C39     -0.1637   4.2511   0.9018   C.3       1 1      0.0000
    40 H40      0.2367   3.9173  -0.0532   H         1 1      0.0000
    41 H41     -0.3181   5.3267   0.8472   H         1 1      0.0000
    42 H42      0.5818   4.0542   1.6694   H         1 1      0.0000
@<TRIPOS>BOND
     1     1     2   ar
     2     1     6   ar
     3     1    11    1
     4     2     3   ar
     5     2     7    1
     6     3     4   ar
     7     3     8    1
     8     4     5   ar
     9     4    14    1
    10     5     6   ar
    11     5     9    1
    12     6    10    1
    13    11    12    2
    14    11    13    2
    15    14    15    1
    16    14    23    1
    17    14    33    1
    18    15    16    1
    19    15    17    1
    20    15    18    1
    21    18    19    1
    22    18    25    1
    23    18    31    1
    24    19    20    1
    25    19    21    1
    26    19    22    1
    27    23    24    1
    28    25    26    1
    29    25    27    1
    30    27    28    1
    31    27    29    1
    32    27    30    1
    33    31    32    1
    34    33    37    2
    35    33    38    1
    36    34    35    1
    37    34    36    1
    38    34    38    1
    39    34    39    1
    40    39    40    1
    41    39    41    1
    42    39    42    1
@<TRIPOS>SUBSTRUCTURE
     1 1           1 GROUP             0 ****  ****    0  
@<TRIPOS>MOLECULE
Molecule Name_00308
    42    42     1     0     0
SMALL
NO_CHARGES
****
Generated from the CSD

@<TRIPOS>ATOM
     1 C1       3.4906  -0.5462  -0.1510   C.ar      1 1      0.0000
     2 C2       2.8819  -0.9360   1.0213   C.ar      1 1      0.0000
     3 C3       1.5179  -0.7486   1.1523   C.ar      1 1      0.0000
     4 C4       0.7630  -0.1781   0.1335   C.ar      1 1      0.0000
     5 C5       1.4177   0.1975  -1.0343   C.ar      1 1      0.0000
     6 C6       2.7807   0.0193  -1.1868   C.ar      1 1      0.0000
     7 H7       3.4599  -1.3807   1.8246   H         1 1      0.0000
     8 H8       1.0314  -1.0557   2.0717   H         1 1      0.0000
     9 H9       0.8510   0.6401  -1.8467   H         1 1      0.0000
    10 H10      3.2798   0.3183  -2.1026   H         1 1      0.0000
    11 N11      4.9380  -0.7392  -0.3009   N.pl3     1 1      0.0000
    12 O12      5.4629  -0.3884  -1.3462   O.2       1 1      0.0000
    13 O13      5.5533  -1.2420   0.6264   O.2       1 1      0.0000
    14 CL3     -0.7432   0.0359   0.2899   C.3       1 1      0.0000
    15 CL1     -1.5309  -0.8183  -0.7436   C.3       1 1      0.0000
    16 H16     -1.4422  -0.3462  -1.7295   H         1 1      0.0000
    17 H17     -1.0490  -1.8010  -0.8174   H         1 1      0.0000
    18 CL      -3.0239  -1.0395  -0.4428   C.3       1 1      0.0000
    19 CL2     -3.7838  -1.1268  -1.7536   C.3       1 1      0.0000
    20 H20     -4.7912  -1.5044  -1.5910   H         1 1      0.0000
    21 H21     -3.8604  -0.1473  -2.2210   H         1 1      0.0000
    22 H22     -3.2793  -1.7952  -2.4481   H         1 1      0.0000
    23 OL2     -1.0975  -0.3209   1.6202   O.3       1 1      0.0000
    24 H24     -2.0427  -0.0806   1.7843   H         1 1      0.0000
    25 N25     -3.2134  -2.2700   0.2795   N.3       1 1      0.0000
    26 H26     -4.2108  -2.3499   0.4777   H         1 1      0.0000
    27 C27     -2.8091  -3.5058  -0.3930   C.3       1 1      0.0000
    28 H28     -1.7250  -3.5947  -0.4175   H         1 1      0.0000
    29 H29     -3.2088  -4.3753   0.1248   H         1 1      0.0000
    30 H30     -3.1739  -3.5243  -1.4179   H         1 1      0.0000
    31 OL1     -3.5341   0.0824   0.2678   O.3       1 1      0.0000
    32 H32     -4.4994  -0.0482   0.4388   H         1 1      0.0000
    33 CL4     -0.9622   1.5466   0.0730   C.2       1 1      0.0000
    34 C34     -1.1370   3.6580   1.1398   C.3       1 1      0.0000
    35 H35     -0.6841   4.1515   2.0085   H         1 1      0.0000
    36 H36     -0.6542   4.0578   0.2395   H         1 1      0.0000
    37 OL3     -1.1313   2.0441  -1.0060   O.2       1 1      0.0000
    38 OL4     -0.9399   2.2154   1.2194   O.3       1 1      0.0000
    39 C39     -2.5924   3.9238   1.1011   C.3       1 1      0.0000
    40 H40     -3.0785   3.5399   1.9956   H         1 1      0.0000
    41 H41     -2.7879   4.9924   1.0413   H         1 1      0.0000
    42 H42     -3.0488   3.4468   0.2363   H         1 1      0.0000
@<TRIPOS>BOND
     1     1     2   ar
     2     1     6   ar
     3     1    11    1
     4     2     3   ar
     5     2     7    1
     6     3     4   ar
     7     3     8    1
     8     4     5   ar
     9     4    14    1
    10     5     6   ar
    11     5     9    1
    12     6    10    1
    13    11    12    2
    14    11    13    2
    15    14    15    1
    16    14    23    1
    17    14    33    1
    18    15    16    1
    19    15    17    1
    20    15    18    1
    21    18    19    1
    22    18    25    1
    23    18    31    1
    24    19    20    1
    25    19    21    1
    26    19    22    1
    27    23    24    1
    28    25    26    1
    29    25    27    1
    30    27    28    1
    31    27    29    1
    32    27    30    1
    33    31    32    1
    34    33    37    2
    35    33    38    1
    36    34    35    1
    37    34    36    1
    38    34    38    1
    39    34    39    1
    40    39    40    1
    41    39    41    1
    42    39    42    1
@<TRIPOS>SUBSTRUCTURE
     1 1           1 GROUP             0 ****  ****    0  
@<TRIPOS>MOLECULE
Molecule Name_00309
    42    42     1     0     0
SMALL
NO_CHARGES
****
Generated from the CSD

@<TRIPOS>ATOM
     1 C1       3.5071  -0.3671  -0.1147   C.ar      1 1      0.0000
     2 C2       2.9543  -1.2556   0.7806   C.ar      1 1      0.0000
     3 C3       1.5829  -1.2466   0.9601   C.ar      1 1      0.0000
     4 C4       0.7658  -0.3645   0.2618   C.ar      1 1      0.0000
     5 C5       1.3658   0.5129  -0.6347   C.ar      1 1      0.0000
     6 C6       2.7349   0.5210  -0.8299   C.ar      1 1      0.0000
     7 H7       3.5810  -1.9479   1.3331   H         1 1      0.0000
     8 H8       1.1404  -1.9454   1.6615   H         1 1      0.0000
     9 H9       0.7503   1.2079  -1.1961   H         1 1      0.0000
    10 H10      3.1908   1.2120  -1.5313   H         1 1      0.0000
    11 N11      4.9616  -0.3669  -0.3125   N.pl3     1 1      0.0000
    12 O12      5.4366   0.4269  -1.1097   O.2       1 1      0.0000
    13 O13      5.6325  -1.1604   0.3289   O.2       1 1      0.0000
    14 CL3     -0.7487  -0.3530   0.4736   C.3       1 1      0.0000
    15 CL1     -1.4923  -0.6878  -0.8505   C.3       1 1      0.0000
    16 H16     -1.2748   0.0983  -1.5836   H         1 1      0.0000
    17 H17     -1.0776  -1.6205  -1.2524   H         1 1      0.0000
    18 CL      -3.0194  -0.8486  -0.7483   C.3       1 1      0.0000
    19 CL2     -3.6613  -0.2684  -1.9952   C.3       1 1      0.0000
    20 H20     -4.7447  -0.3569  -1.9481   H         1 1      0.0000
    21 H21     -3.4117   0.7851  -2.1030   H         1 1      0.0000
    22 H22     -3.3170  -0.7911  -2.8851   H         1 1      0.0000
    23 OL2     -1.0540  -1.3065   1.4836   O.3       1 1      0.0000
    24 H24     -1.9327  -1.0918   1.8835   H         1 1      0.0000
    25 N25     -3.3725  -2.2410  -0.6568   N.3       1 1      0.0000
    26 H26     -2.6660  -2.7634  -1.1748   H         1 1      0.0000
    27 C27     -3.4399  -2.8239   0.6844   C.3       1 1      0.0000
    28 H28     -3.8122  -2.0966   1.4028   H         1 1      0.0000
    29 H29     -4.1052  -3.6848   0.6978   H         1 1      0.0000
    30 H30     -2.4556  -3.1512   1.0126   H         1 1      0.0000
    31 OL1     -3.5002  -0.1003   0.3619   O.3       1 1      0.0000
    32 H32     -4.4844  -0.1829   0.4125   H         1 1      0.0000
    33 CL4     -1.0769   1.0681   0.9735   C.2       1 1      0.0000
    34 C34     -1.4338   3.3220   0.3260   C.3       1 1      0.0000
    35 H35     -2.4090   3.3810   0.8248   H         1 1      0.0000
    36 H36     -0.6794   3.7112   1.0208   H         1 1      0.0000
    37 OL3     -1.2596   1.3394   2.1282   O.2       1 1      0.0000
    38 OL4     -1.1300   1.9399  -0.0262   O.3       1 1      0.0000
    39 C39     -1.4458   4.1236  -0.9181   C.3       1 1      0.0000
    40 H40     -2.1989   3.7513  -1.6095   H         1 1      0.0000
    41 H41     -1.6693   5.1664  -0.7028   H         1 1      0.0000
    42 H42     -0.4787   4.0797  -1.4146   H         1 1      0.0000
@<TRIPOS>BOND
     1     1     2   ar
     2     1     6   ar
     3     1    11    1
     4     2     3   ar
     5     2     7    1
     6     3     4   ar
     7     3     8    1
     8     4     5   ar
     9     4    14    1
    10     5     6   ar
    11     5     9    1
    12     6    10    1
    13    11    12    2
    14    11    13    2
    15    14    15    1
    16    14    23    1
    17    14    33    1
    18    15    16    1
    19    15    17    1
    20    15    18    1
    21    18    19    1
    22    18    25    1
    23    18    31    1
    24    19    20    1
    25    19    21    1
    26    19    22    1
    27    23    24    1
    28    25    26    1
    29    25    27    1
    30    27    28    1
    31    27    29    1
    32    27    30    1
    33    31    32    1
    34    33    37    2
    35    33    38    1
    36    34    35    1
    37    34    36    1
    38    34    38    1
    39    34    39    1
    40    39    40    1
    41    39    41    1
    42    39    42    1
@<TRIPOS>SUBSTRUCTURE
     1 1           1 GROUP             0 ****  ****    0  
@<TRIPOS>MOLECULE
Molecule Name_00310
    42    42     1     0     0
SMALL
NO_CHARGES
****
Generated from the CSD

@<TRIPOS>ATOM
     1 C1       3.5155  -0.2210  -0.2508   C.ar      1 1      0.0000
     2 C2       3.0035  -0.8833   0.8427   C.ar      1 1      0.0000
     3 C3       1.6307  -0.9302   1.0044   C.ar      1 1      0.0000
     4 C4       0.7720  -0.3249   0.0937   C.ar      1 1      0.0000
     5 C5       1.3318   0.3300  -0.9978   C.ar      1 1      0.0000
     6 C6       2.7016   0.3891  -1.1792   C.ar      1 1      0.0000
     7 H7       3.6628  -1.3583   1.5617   H         1 1      0.0000
     8 H8       1.2204  -1.4525   1.8618   H         1 1      0.0000
     9 H9       0.6838   0.8060  -1.7261   H         1 1      0.0000
    10 H10      3.1257   0.9048  -2.0344   H         1 1      0.0000
    11 N11      4.9710  -0.1637  -0.4321   N.pl3     1 1      0.0000
    12 O12      5.6837  -0.4542   0.5160   O.2       1 1      0.0000
    13 O13      5.4050   0.1718  -1.5231   O.2       1 1      0.0000
    14 CL3     -0.7446  -0.3716   0.2850   C.3       1 1      0.0000
    15 CL1     -1.4216  -1.1580  -0.8733   C.3       1 1      0.0000
    16 H16     -1.1576  -0.6792  -1.8239   H         1 1      0.0000
    17 H17     -0.9966  -2.1691  -0.8981   H         1 1      0.0000
    18 CL      -2.9536  -1.2850  -0.8016   C.3       1 1      0.0000
    19 CL2     -3.3783  -2.5504  -1.5240   C.3       1 1      0.0000
    20 H20     -4.3568  -2.4229  -1.9824   H         1 1      0.0000
    21 H21     -2.6674  -2.8042  -2.3076   H         1 1      0.0000
    22 H22     -3.4345  -3.3888  -0.8328   H         1 1      0.0000
    23 OL2     -1.0060  -0.9884   1.5395   O.3       1 1      0.0000
    24 H24     -1.6083  -1.7615   1.4065   H         1 1      0.0000
    25 N25     -3.3865  -1.3724   0.5684   N.3       1 1      0.0000
    26 H26     -3.0964  -0.5099   1.0293   H         1 1      0.0000
    27 C27     -4.8234  -1.5229   0.8042   C.3       1 1      0.0000
    28 H28     -5.1262  -2.5617   0.6910   H         1 1      0.0000
    29 H29     -5.0849  -1.2013   1.8102   H         1 1      0.0000
    30 H30     -5.3949  -0.9244   0.0979   H         1 1      0.0000
    31 OL1     -3.5512  -0.1885  -1.4829   O.3       1 1      0.0000
    32 H32     -4.5185  -0.3600  -1.5968   H         1 1      0.0000
    33 CL4     -1.1942   1.1028   0.3184   C.2       1 1      0.0000
    34 C34     -1.3458   3.0586   1.6518   C.3       1 1      0.0000
    35 H35     -2.2747   3.2580   1.1034   H         1 1      0.0000
    36 H36     -1.5261   3.2901   2.7089   H         1 1      0.0000
    37 OL3     -1.6932   1.6655  -0.6169   O.2       1 1      0.0000
    38 OL4     -0.9607   1.6604   1.5002   O.3       1 1      0.0000
    39 C39     -0.2487   3.8998   1.1235   C.3       1 1      0.0000
    40 H40     -0.0697   3.6846   0.0721   H         1 1      0.0000
    41 H41     -0.4933   4.9558   1.2165   H         1 1      0.0000
    42 H42      0.6748   3.7165   1.6688   H         1 1      0.0000
@<TRIPOS>BOND
     1     1     2   ar
     2     1     6   ar
     3     1    11    1
     4     2     3   ar
     5     2     7    1
     6     3     4   ar
     7     3     8    1
     8     4     5   ar
     9     4    14    1
    10     5     6   ar
    11     5     9    1
    12     6    10    1
    13    11    12    2
    14    11    13    2
    15    14    15    1
    16    14    23    1
    17    14    33    1
    18    15    16    1
    19    15    17    1
    20    15    18    1
    21    18    19    1
    22    18    25    1
    23    18    31    1
    24    19    20    1
    25    19    21    1
    26    19    22    1
    27    23    24    1
    28    25    26    1
    29    25    27    1
    30    27    28    1
    31    27    29    1
    32    27    30    1
    33    31    32    1
    34    33    37    2
    35    33    38    1
    36    34    35    1
    37    34    36    1
    38    34    38    1
    39    34    39    1
    40    39    40    1
    41    39    41    1
    42    39    42    1
@<TRIPOS>SUBSTRUCTURE
     1 1           1 GROUP             0 ****  ****    0  
@<TRIPOS>MOLECULE
Molecule Name_00311
    42    42     1     0     0
SMALL
NO_CHARGES
****
Generated from the CSD

@<TRIPOS>ATOM
     1 C1       3.6213  -0.3719  -0.2294   C.ar      1 1      0.0000
     2 C2       3.0646  -0.9475   0.8911   C.ar      1 1      0.0000
     3 C3       1.6893  -0.9191   1.0353   C.ar      1 1      0.0000
     4 C4       0.8721  -0.3243   0.0805   C.ar      1 1      0.0000
     5 C5       1.4760   0.2417  -1.0367   C.ar      1 1      0.0000
     6 C6       2.8492   0.2246  -1.2013   C.ar      1 1      0.0000
     7 H7       3.6913  -1.4133   1.6444   H         1 1      0.0000
     8 H8       1.2439  -1.3729   1.9138   H         1 1      0.0000
     9 H9       0.8607   0.7076  -1.7992   H         1 1      0.0000
    10 H10      3.3081   0.6714  -2.0771   H         1 1      0.0000
    11 N11      5.0799  -0.3949  -0.3925   N.pl3     1 1      0.0000
    12 O12      5.7662  -0.6667   0.5803   O.2       1 1      0.0000
    13 O13      5.5426  -0.1414  -1.4938   O.2       1 1      0.0000
    14 CL3     -0.6472  -0.2872   0.2522   C.3       1 1      0.0000
    15 CL1     -1.3481  -1.1027  -0.8712   C.3       1 1      0.0000
    16 H16     -1.0498  -0.6902  -1.8426   H         1 1      0.0000
    17 H17     -0.9729  -2.1329  -0.8347   H         1 1      0.0000
    18 CL      -2.8852  -1.1515  -0.8148   C.3       1 1      0.0000
    19 CL2     -3.3628  -2.4329  -1.4733   C.3       1 1      0.0000
    20 H20     -4.3284  -2.2838  -1.9521   H         1 1      0.0000
    21 H21     -2.6560  -2.7635  -2.2315   H         1 1      0.0000
    22 H22     -3.4681  -3.2281  -0.7384   H         1 1      0.0000
    23 OL2     -0.9532  -0.8206   1.5345   O.3       1 1      0.0000
    24 H24     -1.5910  -1.5699   1.4351   H         1 1      0.0000
    25 N25     -3.3380  -1.1423   0.5515   N.3       1 1      0.0000
    26 H26     -3.0115  -0.2707   0.9689   H         1 1      0.0000
    27 C27     -4.7833  -1.2100   0.7744   C.3       1 1      0.0000
    28 H28     -5.1351  -2.2378   0.7135   H         1 1      0.0000
    29 H29     -5.0405  -0.8213   1.7575   H         1 1      0.0000
    30 H30     -5.3164  -0.6246   0.0282   H         1 1      0.0000
    31 OL1     -3.4203  -0.0667  -1.5635   O.3       1 1      0.0000
    32 H32     -4.3935  -0.1973  -1.6818   H         1 1      0.0000
    33 CL4     -1.0244   1.2068   0.1987   C.2       1 1      0.0000
    34 C34     -1.0959   3.2382   1.4213   C.3       1 1      0.0000
    35 H35     -0.4861   3.7262   2.1916   H         1 1      0.0000
    36 H36     -0.8745   3.7240   0.4630   H         1 1      0.0000
    37 OL3     -1.4842   1.7404  -0.7730   O.2       1 1      0.0000
    38 OL4     -0.7778   1.8168   1.3516   O.3       1 1      0.0000
    39 C39     -2.5338   3.3744   1.7442   C.3       1 1      0.0000
    40 H40     -2.7609   2.9045   2.6989   H         1 1      0.0000
    41 H41     -2.8174   4.4229   1.8067   H         1 1      0.0000
    42 H42     -3.1472   2.9023   0.9797   H         1 1      0.0000
@<TRIPOS>BOND
     1     1     2   ar
     2     1     6   ar
     3     1    11    1
     4     2     3   ar
     5     2     7    1
     6     3     4   ar
     7     3     8    1
     8     4     5   ar
     9     4    14    1
    10     5     6   ar
    11     5     9    1
    12     6    10    1
    13    11    12    2
    14    11    13    2
    15    14    15    1
    16    14    23    1
    17    14    33    1
    18    15    16    1
    19    15    17    1
    20    15    18    1
    21    18    19    1
    22    18    25    1
    23    18    31    1
    24    19    20    1
    25    19    21    1
    26    19    22    1
    27    23    24    1
    28    25    26    1
    29    25    27    1
    30    27    28    1
    31    27    29    1
    32    27    30    1
    33    31    32    1
    34    33    37    2
    35    33    38    1
    36    34    35    1
    37    34    36    1
    38    34    38    1
    39    34    39    1
    40    39    40    1
    41    39    41    1
    42    39    42    1
@<TRIPOS>SUBSTRUCTURE
     1 1           1 GROUP             0 ****  ****    0  
@<TRIPOS>MOLECULE
Molecule Name_00312
    42    42     1     0     0
SMALL
NO_CHARGES
****
Generated from the CSD

@<TRIPOS>ATOM
     1 C1       3.4797  -0.2839  -0.1336   C.ar      1 1      0.0000
     2 C2       2.6490   0.1271  -1.1522   C.ar      1 1      0.0000
     3 C3       1.2836   0.1293  -0.9319   C.ar      1 1      0.0000
     4 C4       0.7445  -0.2739   0.2846   C.ar      1 1      0.0000
     5 C5       1.6200  -0.6777   1.2865   C.ar      1 1      0.0000
     6 C6       2.9887  -0.6878   1.0881   C.ar      1 1      0.0000
     7 H7       3.0569   0.4425  -2.1069   H         1 1      0.0000
     8 H8       0.6235   0.4544  -1.7287   H         1 1      0.0000
     9 H9       1.2256  -0.9922   2.2470   H         1 1      0.0000
    10 H10      3.6610  -1.0068   1.8777   H         1 1      0.0000
    11 N11      4.9306  -0.2916  -0.3563   N.pl3     1 1      0.0000
    12 O12      5.6538  -0.6587   0.5566   O.2       1 1      0.0000
    13 O13      5.3503   0.0695  -1.4447   O.2       1 1      0.0000
    14 CL3     -0.7670  -0.2791   0.5171   C.3       1 1      0.0000
    15 CL1     -1.5248  -0.6259  -0.7959   C.3       1 1      0.0000
    16 H16     -1.5050   0.2508  -1.4544   H         1 1      0.0000
    17 H17     -0.9746  -1.4228  -1.3112   H         1 1      0.0000
    18 CL      -2.9861  -1.0807  -0.6351   C.3       1 1      0.0000
    19 CL2     -3.7829  -0.6169  -1.8407   C.3       1 1      0.0000
    20 H20     -4.8257  -0.9141  -1.7514   H         1 1      0.0000
    21 H21     -3.7460   0.4665  -1.9338   H         1 1      0.0000
    22 H22     -3.3844  -1.0494  -2.7561   H         1 1      0.0000
    23 OL2     -1.0476  -1.2334   1.5335   O.3       1 1      0.0000
    24 H24     -2.0077  -1.1921   1.7672   H         1 1      0.0000
    25 N25     -3.0598  -2.5164  -0.5621   N.3       1 1      0.0000
    26 H26     -2.4989  -2.8043   0.2398   H         1 1      0.0000
    27 C27     -4.3883  -3.1070  -0.3909   C.3       1 1      0.0000
    28 H28     -5.0401  -2.8368  -1.2191   H         1 1      0.0000
    29 H29     -4.3255  -4.1924  -0.3491   H         1 1      0.0000
    30 H30     -4.8494  -2.7585   0.5309   H         1 1      0.0000
    31 OL1     -3.5520  -0.4566   0.5111   O.3       1 1      0.0000
    32 H32     -4.5045  -0.7118   0.5877   H         1 1      0.0000
    33 CL4     -1.1046   1.1395   1.0180   C.2       1 1      0.0000
    34 C34     -1.0918   3.4477   0.4716   C.3       1 1      0.0000
    35 H35     -2.1580   3.5752   0.6962   H         1 1      0.0000
    36 H36     -0.5260   3.7255   1.3694   H         1 1      0.0000
    37 OL3     -1.5718   1.3674   2.0997   O.2       1 1      0.0000
    38 OL4     -0.8147   2.0627   0.1092   O.3       1 1      0.0000
    39 C39     -0.7017   4.3097  -0.6665   C.3       1 1      0.0000
    40 H40     -1.2658   4.0484  -1.5594   H         1 1      0.0000
    41 H41     -0.8916   5.3568  -0.4400   H         1 1      0.0000
    42 H42      0.3572   4.1979  -0.8898   H         1 1      0.0000
@<TRIPOS>BOND
     1     1     2   ar
     2     1     6   ar
     3     1    11    1
     4     2     3   ar
     5     2     7    1
     6     3     4   ar
     7     3     8    1
     8     4     5   ar
     9     4    14    1
    10     5     6   ar
    11     5     9    1
    12     6    10    1
    13    11    12    2
    14    11    13    2
    15    14    15    1
    16    14    23    1
    17    14    33    1
    18    15    16    1
    19    15    17    1
    20    15    18    1
    21    18    19    1
    22    18    25    1
    23    18    31    1
    24    19    20    1
    25    19    21    1
    26    19    22    1
    27    23    24    1
    28    25    26    1
    29    25    27    1
    30    27    28    1
    31    27    29    1
    32    27    30    1
    33    31    32    1
    34    33    37    2
    35    33    38    1
    36    34    35    1
    37    34    36    1
    38    34    38    1
    39    34    39    1
    40    39    40    1
    41    39    41    1
    42    39    42    1
@<TRIPOS>SUBSTRUCTURE
     1 1           1 GROUP             0 ****  ****    0  
@<TRIPOS>MOLECULE
Molecule Name_00313
    42    42     1     0     0
SMALL
NO_CHARGES
****
Generated from the CSD

@<TRIPOS>ATOM
     1 C1       3.5803  -0.3196  -0.1385   C.ar      1 1      0.0000
     2 C2       2.8409   0.8360  -0.2588   C.ar      1 1      0.0000
     3 C3       1.4774   0.7750  -0.0353   C.ar      1 1      0.0000
     4 C4       0.8504  -0.4194   0.3018   C.ar      1 1      0.0000
     5 C5       1.6357  -1.5611   0.4159   C.ar      1 1      0.0000
     6 C6       3.0008  -1.5231   0.1970   C.ar      1 1      0.0000
     7 H7       3.3178   1.7741  -0.5230   H         1 1      0.0000
     8 H8       0.8892   1.6817  -0.1256   H         1 1      0.0000
     9 H9       1.1720  -2.5049   0.6830   H         1 1      0.0000
    10 H10      3.6020  -2.4217   0.2876   H         1 1      0.0000
    11 N11      5.0281  -0.2672  -0.3746   N.pl3     1 1      0.0000
    12 O12      5.4875   0.7164  -0.9338   O.2       1 1      0.0000
    13 O13      5.7093  -1.2094  -0.0013   O.2       1 1      0.0000
    14 CL3     -0.6596  -0.4812   0.5368   C.3       1 1      0.0000
    15 CL1     -1.4080  -0.8293  -0.7811   C.3       1 1      0.0000
    16 H16     -1.3715   0.0420  -1.4461   H         1 1      0.0000
    17 H17     -0.8619  -1.6364  -1.2849   H         1 1      0.0000
    18 CL      -2.8760  -1.2662  -0.6318   C.3       1 1      0.0000
    19 CL2     -2.9312  -2.5365   0.1968   C.3       1 1      0.0000
    20 H20     -3.7215  -3.1946  -0.1583   H         1 1      0.0000
    21 H21     -1.9885  -3.0766   0.1380   H         1 1      0.0000
    22 H22     -3.1255  -2.3069   1.2424   H         1 1      0.0000
    23 OL2     -0.9045  -1.4635   1.5356   O.3       1 1      0.0000
    24 H24     -1.6767  -1.1856   2.0875   H         1 1      0.0000
    25 N25     -3.6371  -0.2467   0.0415   N.3       1 1      0.0000
    26 H26     -3.0161   0.5515   0.1742   H         1 1      0.0000
    27 C27     -4.8342   0.2494  -0.6396   C.3       1 1      0.0000
    28 H28     -5.5425  -0.5582  -0.8119   H         1 1      0.0000
    29 H29     -5.3291   1.0127  -0.0428   H         1 1      0.0000
    30 H30     -4.5771   0.6859  -1.6025   H         1 1      0.0000
    31 OL1     -3.4102  -1.5742  -1.9138   O.3       1 1      0.0000
    32 H32     -4.2924  -2.0084  -1.8066   H         1 1      0.0000
    33 CL4     -1.0447   0.9153   1.0648   C.2       1 1      0.0000
    34 C34     -1.5534   3.1507   0.4563   C.3       1 1      0.0000
    35 H35     -2.5084   3.1511   0.9961   H         1 1      0.0000
    36 H36     -0.7930   3.5759   1.1229   H         1 1      0.0000
    37 OL3     -1.1930   1.1666   2.2289   O.2       1 1      0.0000
    38 OL4     -1.1885   1.7907   0.0773   O.3       1 1      0.0000
    39 C39     -1.6627   3.9604  -0.7778   C.3       1 1      0.0000
    40 H40     -2.4226   3.5522  -1.4409   H         1 1      0.0000
    41 H41     -1.9344   4.9873  -0.5425   H         1 1      0.0000
    42 H42     -0.7165   3.9748  -1.3148   H         1 1      0.0000
@<TRIPOS>BOND
     1     1     2   ar
     2     1     6   ar
     3     1    11    1
     4     2     3   ar
     5     2     7    1
     6     3     4   ar
     7     3     8    1
     8     4     5   ar
     9     4    14    1
    10     5     6   ar
    11     5     9    1
    12     6    10    1
    13    11    12    2
    14    11    13    2
    15    14    15    1
    16    14    23    1
    17    14    33    1
    18    15    16    1
    19    15    17    1
    20    15    18    1
    21    18    19    1
    22    18    25    1
    23    18    31    1
    24    19    20    1
    25    19    21    1
    26    19    22    1
    27    23    24    1
    28    25    26    1
    29    25    27    1
    30    27    28    1
    31    27    29    1
    32    27    30    1
    33    31    32    1
    34    33    37    2
    35    33    38    1
    36    34    35    1
    37    34    36    1
    38    34    38    1
    39    34    39    1
    40    39    40    1
    41    39    41    1
    42    39    42    1
@<TRIPOS>SUBSTRUCTURE
     1 1           1 GROUP             0 ****  ****    0  
@<TRIPOS>MOLECULE
Molecule Name_00314
    42    42     1     0     0
SMALL
NO_CHARGES
****
Generated from the CSD

@<TRIPOS>ATOM
     1 C1       2.8864  -0.6277  -0.3106   C.ar      1 1      0.0000
     2 C2       2.1132  -0.3598  -1.4184   C.ar      1 1      0.0000
     3 C3       0.7951   0.0142  -1.2301   C.ar      1 1      0.0000
     4 C4       0.2458   0.1198   0.0429   C.ar      1 1      0.0000
     5 C5       1.0633  -0.1564   1.1332   C.ar      1 1      0.0000
     6 C6       2.3841  -0.5320   0.9681   C.ar      1 1      0.0000
     7 H7       2.5293  -0.4404  -2.4172   H         1 1      0.0000
     8 H8       0.1811   0.2293  -2.0978   H         1 1      0.0000
     9 H9       0.6609  -0.0763   2.1375   H         1 1      0.0000
    10 H10      3.0110  -0.7464   1.8274   H         1 1      0.0000
    11 N11      4.2865  -1.0268  -0.4983   N.pl3     1 1      0.0000
    12 O12      4.9589  -1.2609   0.4937   O.2       1 1      0.0000
    13 O13      4.7170  -1.1070  -1.6383   O.2       1 1      0.0000
    14 CL3     -1.2157   0.5235   0.2427   C.3       1 1      0.0000
    15 CL1     -2.1158  -0.1045  -0.8590   C.3       1 1      0.0000
    16 H16     -3.0584   0.4545  -0.9028   H         1 1      0.0000
    17 H17     -1.6203   0.0319  -1.8282   H         1 1      0.0000
    18 CL      -2.4437  -1.5991  -0.6959   C.3       1 1      0.0000
    19 CL2     -2.7125  -2.1977  -2.0644   C.3       1 1      0.0000
    20 H20     -2.9595  -3.2541  -1.9816   H         1 1      0.0000
    21 H21     -3.5446  -1.6922  -2.5499   H         1 1      0.0000
    22 H22     -1.8382  -2.1033  -2.7051   H         1 1      0.0000
    23 OL2     -1.6147   0.0864   1.5359   O.3       1 1      0.0000
    24 H24     -2.5470   0.3698   1.7054   H         1 1      0.0000
    25 N25     -1.3325  -2.2949  -0.1016   N.3       1 1      0.0000
    26 H26     -1.1792  -1.8828   0.8187   H         1 1      0.0000
    27 C27     -1.4782  -3.7384   0.0932   C.3       1 1      0.0000
    28 H28     -1.6449  -4.2411  -0.8572   H         1 1      0.0000
    29 H29     -0.5829  -4.1587   0.5465   H         1 1      0.0000
    30 H30     -2.3221  -3.9565   0.7445   H         1 1      0.0000
    31 OL1     -3.6349  -1.7409   0.0688   O.3       1 1      0.0000
    32 H32     -3.8607  -2.7003   0.1507   H         1 1      0.0000
    33 CL4     -1.2224   2.0640   0.1813   C.2       1 1      0.0000
    34 C34     -0.7542   4.0587   1.3765   C.3       1 1      0.0000
    35 H35     -0.0980   4.4543   0.5915   H         1 1      0.0000
    36 H36     -1.7572   4.4716   1.2125   H         1 1      0.0000
    37 OL3     -1.5760   2.6880  -0.7810   O.2       1 1      0.0000
    38 OL4     -0.7921   2.6023   1.3159   O.3       1 1      0.0000
    39 C39     -0.2505   4.4524   2.7114   C.3       1 1      0.0000
    40 H40      0.7488   4.0561   2.8788   H         1 1      0.0000
    41 H41     -0.2052   5.5357   2.8024   H         1 1      0.0000
    42 H42     -0.9014   4.0733   3.4965   H         1 1      0.0000
@<TRIPOS>BOND
     1     1     2   ar
     2     1     6   ar
     3     1    11    1
     4     2     3   ar
     5     2     7    1
     6     3     4   ar
     7     3     8    1
     8     4     5   ar
     9     4    14    1
    10     5     6   ar
    11     5     9    1
    12     6    10    1
    13    11    12    2
    14    11    13    2
    15    14    15    1
    16    14    23    1
    17    14    33    1
    18    15    16    1
    19    15    17    1
    20    15    18    1
    21    18    19    1
    22    18    25    1
    23    18    31    1
    24    19    20    1
    25    19    21    1
    26    19    22    1
    27    23    24    1
    28    25    26    1
    29    25    27    1
    30    27    28    1
    31    27    29    1
    32    27    30    1
    33    31    32    1
    34    33    37    2
    35    33    38    1
    36    34    35    1
    37    34    36    1
    38    34    38    1
    39    34    39    1
    40    39    40    1
    41    39    41    1
    42    39    42    1
@<TRIPOS>SUBSTRUCTURE
     1 1           1 GROUP             0 ****  ****    0  
@<TRIPOS>MOLECULE
Molecule Name_00315
    42    42     1     0     0
SMALL
NO_CHARGES
****
Generated from the CSD

@<TRIPOS>ATOM
     1 C1       3.5543  -0.2130  -0.1752   C.ar      1 1      0.0000
     2 C2       2.6902   0.2680  -1.1336   C.ar      1 1      0.0000
     3 C3       1.3295   0.1360  -0.9233   C.ar      1 1      0.0000
     4 C4       0.8282  -0.4689   0.2239   C.ar      1 1      0.0000
     5 C5       1.7364  -0.9371   1.1669   C.ar      1 1      0.0000
     6 C6       3.1010  -0.8154   0.9773   C.ar      1 1      0.0000
     7 H7       3.0685   0.7405  -2.0340   H         1 1      0.0000
     8 H8       0.6431   0.5149  -1.6726   H         1 1      0.0000
     9 H9       1.3714  -1.4084   2.0734   H         1 1      0.0000
    10 H10      3.7992  -1.1865   1.7203   H         1 1      0.0000
    11 N11      5.0005  -0.0794  -0.3881   N.pl3     1 1      0.0000
    12 O12      5.7537  -0.5108   0.4709   O.2       1 1      0.0000
    13 O13      5.3866   0.4573  -1.4148   O.2       1 1      0.0000
    14 CL3     -0.6775  -0.6211   0.4443   C.3       1 1      0.0000
    15 CL1     -1.4035  -0.9156  -0.8990   C.3       1 1      0.0000
    16 H16     -1.0620  -0.1915  -1.6486   H         1 1      0.0000
    17 H17     -1.0911  -1.9070  -1.2496   H         1 1      0.0000
    18 CL      -2.9416  -0.8855  -0.8590   C.3       1 1      0.0000
    19 CL2     -3.4817  -1.7197  -2.0061   C.3       1 1      0.0000
    20 H20     -4.4478  -1.3431  -2.3354   H         1 1      0.0000
    21 H21     -2.8012  -1.6951  -2.8546   H         1 1      0.0000
    22 H22     -3.6077  -2.7569  -1.7027   H         1 1      0.0000
    23 OL2     -0.8764  -1.6798   1.3728   O.3       1 1      0.0000
    24 H24     -1.6365  -2.2387   1.0761   H         1 1      0.0000
    25 N25     -3.4225  -1.4420   0.3784   N.3       1 1      0.0000
    26 H26     -3.0567  -0.8586   1.1309   H         1 1      0.0000
    27 C27     -4.8738  -1.5129   0.5569   C.3       1 1      0.0000
    28 H28     -5.2895  -2.3541   0.0060   H         1 1      0.0000
    29 H29     -5.1275  -1.6372   1.6076   H         1 1      0.0000
    30 H30     -5.3514  -0.6036   0.1982   H         1 1      0.0000
    31 OL1     -3.3935   0.4488  -1.0572   O.3       1 1      0.0000
    32 H32     -4.3754   0.4490  -1.1759   H         1 1      0.0000
    33 CL4     -1.1333   0.7155   1.0630   C.2       1 1      0.0000
    34 C34     -1.3197   3.0545   0.7155   C.3       1 1      0.0000
    35 H35     -2.3921   3.0709   0.9460   H         1 1      0.0000
    36 H36     -0.7767   3.3021   1.6360   H         1 1      0.0000
    37 OL3     -1.6146   0.8095   2.1584   O.2       1 1      0.0000
    38 OL4     -0.9265   1.7343   0.2374   O.3       1 1      0.0000
    39 C39     -1.0086   4.0407  -0.3433   C.3       1 1      0.0000
    40 H40     -1.5514   3.8093  -1.2574   H         1 1      0.0000
    41 H41     -1.2865   5.0446  -0.0291   H         1 1      0.0000
    42 H42      0.0552   4.0392  -0.5712   H         1 1      0.0000
@<TRIPOS>BOND
     1     1     2   ar
     2     1     6   ar
     3     1    11    1
     4     2     3   ar
     5     2     7    1
     6     3     4   ar
     7     3     8    1
     8     4     5   ar
     9     4    14    1
    10     5     6   ar
    11     5     9    1
    12     6    10    1
    13    11    12    2
    14    11    13    2
    15    14    15    1
    16    14    23    1
    17    14    33    1
    18    15    16    1
    19    15    17    1
    20    15    18    1
    21    18    19    1
    22    18    25    1
    23    18    31    1
    24    19    20    1
    25    19    21    1
    26    19    22    1
    27    23    24    1
    28    25    26    1
    29    25    27    1
    30    27    28    1
    31    27    29    1
    32    27    30    1
    33    31    32    1
    34    33    37    2
    35    33    38    1
    36    34    35    1
    37    34    36    1
    38    34    38    1
    39    34    39    1
    40    39    40    1
    41    39    41    1
    42    39    42    1
@<TRIPOS>SUBSTRUCTURE
     1 1           1 GROUP             0 ****  ****    0  
@<TRIPOS>MOLECULE
Molecule Name_00316
    42    42     1     0     0
SMALL
NO_CHARGES
****
Generated from the CSD

@<TRIPOS>ATOM
     1 C1       3.3890  -0.3579  -0.1191   C.ar      1 1      0.0000
     2 C2       2.8495  -1.0589   0.9364   C.ar      1 1      0.0000
     3 C3       1.4840  -0.9919   1.1459   C.ar      1 1      0.0000
     4 C4       0.6597  -0.2359   0.3199   C.ar      1 1      0.0000
     5 C5       1.2461   0.4531  -0.7360   C.ar      1 1      0.0000
     6 C6       2.6092   0.4002  -0.9640   C.ar      1 1      0.0000
     7 H7       3.4820  -1.6511   1.5895   H         1 1      0.0000
     8 H8       1.0519  -1.5436   1.9736   H         1 1      0.0000
     9 H9       0.6247   1.0462  -1.3987   H         1 1      0.0000
    10 H10      3.0545   0.9439  -1.7906   H         1 1      0.0000
    11 N11      4.8372  -0.4206  -0.3504   N.pl3     1 1      0.0000
    12 O12      5.3003   0.2064  -1.2903   O.2       1 1      0.0000
    13 O13      5.5149  -1.0972   0.4074   O.2       1 1      0.0000
    14 CL3     -0.8479  -0.1579   0.5643   C.3       1 1      0.0000
    15 CL1     -1.6333  -0.7068  -0.6605   C.3       1 1      0.0000
    16 H16     -1.5920   0.0365  -1.4658   H         1 1      0.0000
    17 H17     -1.1170  -1.6022  -1.0280   H         1 1      0.0000
    18 CL      -3.1072  -1.0731  -0.4118   C.3       1 1      0.0000
    19 CL2     -3.9028  -0.8036  -1.6759   C.3       1 1      0.0000
    20 H20     -4.8813  -1.2765  -1.6239   H         1 1      0.0000
    21 H21     -4.0499   0.2649  -1.8186   H         1 1      0.0000
    22 H22     -3.3838  -1.1939  -2.5489   H         1 1      0.0000
    23 OL2     -1.1385  -0.9120   1.7345   O.3       1 1      0.0000
    24 H24     -2.0841  -0.7731   1.9886   H         1 1      0.0000
    25 N25     -3.2288  -2.4692  -0.0828   N.3       1 1      0.0000
    26 H26     -4.2160  -2.6482   0.1008   H         1 1      0.0000
    27 C27     -2.7994  -3.4323  -1.0982   C.3       1 1      0.0000
    28 H28     -1.7140  -3.4619  -1.1673   H         1 1      0.0000
    29 H29     -3.1509  -4.4326  -0.8541   H         1 1      0.0000
    30 H30     -3.1940  -3.1637  -2.0759   H         1 1      0.0000
    31 OL1     -3.6370  -0.2346   0.6080   O.3       1 1      0.0000
    32 H32     -4.5911  -0.4527   0.7500   H         1 1      0.0000
    33 CL4     -1.1412   1.3353   0.8128   C.2       1 1      0.0000
    34 C34     -1.4657   3.4491  -0.2133   C.3       1 1      0.0000
    35 H35     -1.9109   3.8231  -1.1435   H         1 1      0.0000
    36 H36     -2.1794   3.6385   0.5980   H         1 1      0.0000
    37 OL3     -1.3002   1.8073   1.9047   O.2       1 1      0.0000
    38 OL4     -1.1938   2.0207  -0.3228   O.3       1 1      0.0000
    39 C39     -0.1869   4.1432   0.0576   C.3       1 1      0.0000
    40 H40      0.5241   3.9698  -0.7475   H         1 1      0.0000
    41 H41     -0.3421   5.2163   0.1474   H         1 1      0.0000
    42 H42      0.2570   3.7861   0.9845   H         1 1      0.0000
@<TRIPOS>BOND
     1     1     2   ar
     2     1     6   ar
     3     1    11    1
     4     2     3   ar
     5     2     7    1
     6     3     4   ar
     7     3     8    1
     8     4     5   ar
     9     4    14    1
    10     5     6   ar
    11     5     9    1
    12     6    10    1
    13    11    12    2
    14    11    13    2
    15    14    15    1
    16    14    23    1
    17    14    33    1
    18    15    16    1
    19    15    17    1
    20    15    18    1
    21    18    19    1
    22    18    25    1
    23    18    31    1
    24    19    20    1
    25    19    21    1
    26    19    22    1
    27    23    24    1
    28    25    26    1
    29    25    27    1
    30    27    28    1
    31    27    29    1
    32    27    30    1
    33    31    32    1
    34    33    37    2
    35    33    38    1
    36    34    35    1
    37    34    36    1
    38    34    38    1
    39    34    39    1
    40    39    40    1
    41    39    41    1
    42    39    42    1
@<TRIPOS>SUBSTRUCTURE
     1 1           1 GROUP             0 ****  ****    0  
@<TRIPOS>MOLECULE
Molecule Name_00317
    42    42     1     0     0
SMALL
NO_CHARGES
****
Generated from the CSD

@<TRIPOS>ATOM
     1 C1       3.5261  -0.2381  -0.0880   C.ar      1 1      0.0000
     2 C2       3.0343  -0.9102   1.0088   C.ar      1 1      0.0000
     3 C3       1.6671  -0.9245   1.2174   C.ar      1 1      0.0000
     4 C4       0.7943  -0.2773   0.3499   C.ar      1 1      0.0000
     5 C5       1.3337   0.3860  -0.7467   C.ar      1 1      0.0000
     6 C6       2.6975   0.4130  -0.9746   C.ar      1 1      0.0000
     7 H7       3.7048  -1.4177   1.6944   H         1 1      0.0000
     8 H8       1.2725  -1.4541   2.0776   H         1 1      0.0000
     9 H9       0.6741   0.8945  -1.4419   H         1 1      0.0000
    10 H10      3.1058   0.9357  -1.8333   H         1 1      0.0000
    11 N11      4.9756  -0.2153  -0.3188   N.pl3     1 1      0.0000
    12 O12      5.3961   0.3849  -1.2957   O.2       1 1      0.0000
    13 O13      5.6969  -0.7974   0.4762   O.2       1 1      0.0000
    14 CL3     -0.7156  -0.2883   0.5931   C.3       1 1      0.0000
    15 CL1     -1.4596  -0.9626  -0.5944   C.3       1 1      0.0000
    16 H16     -1.4476  -0.2774  -1.4506   H         1 1      0.0000
    17 H17     -0.8948  -1.8543  -0.8933   H         1 1      0.0000
    18 CL      -2.9155  -1.3852  -0.3299   C.3       1 1      0.0000
    19 CL2     -3.5660  -0.3669   0.5884   C.3       1 1      0.0000
    20 H20     -4.6222  -0.5894   0.7244   H         1 1      0.0000
    21 H21     -3.0901  -0.3705   1.5669   H         1 1      0.0000
    22 H22     -3.4814   0.6356   0.1741   H         1 1      0.0000
    23 OL2     -0.9555  -0.9887   1.8073   O.3       1 1      0.0000
    24 H24     -1.1744  -1.9317   1.6050   H         1 1      0.0000
    25 N25     -3.6571  -1.4299  -1.5628   N.3       1 1      0.0000
    26 H26     -3.1851  -2.0986  -2.1716   H         1 1      0.0000
    27 C27     -5.0601  -1.8396  -1.4812   C.3       1 1      0.0000
    28 H28     -5.7198  -0.9836  -1.6073   H         1 1      0.0000
    29 H29     -5.2955  -2.5659  -2.2563   H         1 1      0.0000
    30 H30     -5.2740  -2.2931  -0.5156   H         1 1      0.0000
    31 OL1     -2.9288  -2.6356   0.3485   O.3       1 1      0.0000
    32 H32     -3.8245  -2.7879   0.7393   H         1 1      0.0000
    33 CL4     -1.1109   1.1935   0.7520   C.2       1 1      0.0000
    34 C34     -1.5803   3.2139  -0.3987   C.3       1 1      0.0000
    35 H35     -2.0501   3.4993  -1.3480   H         1 1      0.0000
    36 H36     -2.3053   3.4026   0.4026   H         1 1      0.0000
    37 OL3     -1.3021   1.7188   1.8140   O.2       1 1      0.0000
    38 OL4     -1.2107   1.8035  -0.4228   O.3       1 1      0.0000
    39 C39     -0.3523   4.0094  -0.1758   C.3       1 1      0.0000
    40 H40      0.3689   3.8367  -0.9718   H         1 1      0.0000
    41 H41     -0.5810   5.0728  -0.1503   H         1 1      0.0000
    42 H42      0.1151   3.7405   0.7692   H         1 1      0.0000
@<TRIPOS>BOND
     1     1     2   ar
     2     1     6   ar
     3     1    11    1
     4     2     3   ar
     5     2     7    1
     6     3     4   ar
     7     3     8    1
     8     4     5   ar
     9     4    14    1
    10     5     6   ar
    11     5     9    1
    12     6    10    1
    13    11    12    2
    14    11    13    2
    15    14    15    1
    16    14    23    1
    17    14    33    1
    18    15    16    1
    19    15    17    1
    20    15    18    1
    21    18    19    1
    22    18    25    1
    23    18    31    1
    24    19    20    1
    25    19    21    1
    26    19    22    1
    27    23    24    1
    28    25    26    1
    29    25    27    1
    30    27    28    1
    31    27    29    1
    32    27    30    1
    33    31    32    1
    34    33    37    2
    35    33    38    1
    36    34    35    1
    37    34    36    1
    38    34    38    1
    39    34    39    1
    40    39    40    1
    41    39    41    1
    42    39    42    1
@<TRIPOS>SUBSTRUCTURE
     1 1           1 GROUP             0 ****  ****    0  
@<TRIPOS>MOLECULE
Molecule Name_00318
    42    42     1     0     0
SMALL
NO_CHARGES
****
Generated from the CSD

@<TRIPOS>ATOM
     1 C1       3.4936  -0.5056  -0.0918   C.ar      1 1      0.0000
     2 C2       2.9112  -1.1931   0.9496   C.ar      1 1      0.0000
     3 C3       1.5493  -1.0597   1.1505   C.ar      1 1      0.0000
     4 C4       0.7708  -0.2513   0.3297   C.ar      1 1      0.0000
     5 C5       1.3994   0.4219  -0.7119   C.ar      1 1      0.0000
     6 C6       2.7598   0.3030  -0.9311   C.ar      1 1      0.0000
     7 H7       3.5077  -1.8258   1.5985   H         1 1      0.0000
     8 H8       1.0833  -1.6004   1.9671   H         1 1      0.0000
     9 H9       0.8140   1.0550  -1.3703   H         1 1      0.0000
    10 H10      3.2385   0.8350  -1.7467   H         1 1      0.0000
    11 N11      4.9385  -0.6386  -0.3139   N.pl3     1 1      0.0000
    12 O12      5.4400  -0.0226  -1.2414   O.2       1 1      0.0000
    13 O13      5.5752  -1.3593   0.4387   O.2       1 1      0.0000
    14 CL3     -0.7328  -0.1002   0.5647   C.3       1 1      0.0000
    15 CL1     -1.5356  -0.5912  -0.6733   C.3       1 1      0.0000
    16 H16     -1.4504   0.1603  -1.4674   H         1 1      0.0000
    17 H17     -1.0625  -1.5064  -1.0501   H         1 1      0.0000
    18 CL      -3.0280  -0.8856  -0.4403   C.3       1 1      0.0000
    19 CL2     -3.7991  -0.5583  -1.7058   C.3       1 1      0.0000
    20 H20     -4.8007  -0.9815  -1.6675   H         1 1      0.0000
    21 H21     -3.8907   0.5183  -1.8340   H         1 1      0.0000
    22 H22     -3.2939  -0.9620  -2.5807   H         1 1      0.0000
    23 OL2     -1.0703  -0.8551   1.7218   O.3       1 1      0.0000
    24 H24     -2.0096  -0.6719   1.9714   H         1 1      0.0000
    25 N25     -3.2228  -2.2782  -0.1324   N.3       1 1      0.0000
    26 H26     -4.2192  -2.4095   0.0417   H         1 1      0.0000
    27 C27     -2.8350  -3.2475  -1.1586   C.3       1 1      0.0000
    28 H28     -1.7520  -3.3312  -1.2205   H         1 1      0.0000
    29 H29     -3.2385  -4.2320  -0.9314   H         1 1      0.0000
    30 H30     -3.2079  -2.9454  -2.1350   H         1 1      0.0000
    31 OL1     -3.5224  -0.0358   0.5878   O.3       1 1      0.0000
    32 H32     -4.4875  -0.2071   0.7201   H         1 1      0.0000
    33 CL4     -0.9519   1.4022   0.8328   C.2       1 1      0.0000
    34 C34     -1.1609   3.5441  -0.1648   C.3       1 1      0.0000
    35 H35     -0.6568   3.9186   0.7346   H         1 1      0.0000
    36 H36     -0.7320   4.0655  -1.0294   H         1 1      0.0000
    37 OL3     -1.0952   1.8662   1.9303   O.2       1 1      0.0000
    38 OL4     -0.9610   2.1054  -0.2931   O.3       1 1      0.0000
    39 C39     -2.6158   3.8025  -0.0813   C.3       1 1      0.0000
    40 H40     -3.0484   3.2977   0.7800   H         1 1      0.0000
    41 H41     -2.8134   4.8680   0.0159   H         1 1      0.0000
    42 H42     -3.1232   3.4438  -0.9744   H         1 1      0.0000
@<TRIPOS>BOND
     1     1     2   ar
     2     1     6   ar
     3     1    11    1
     4     2     3   ar
     5     2     7    1
     6     3     4   ar
     7     3     8    1
     8     4     5   ar
     9     4    14    1
    10     5     6   ar
    11     5     9    1
    12     6    10    1
    13    11    12    2
    14    11    13    2
    15    14    15    1
    16    14    23    1
    17    14    33    1
    18    15    16    1
    19    15    17    1
    20    15    18    1
    21    18    19    1
    22    18    25    1
    23    18    31    1
    24    19    20    1
    25    19    21    1
    26    19    22    1
    27    23    24    1
    28    25    26    1
    29    25    27    1
    30    27    28    1
    31    27    29    1
    32    27    30    1
    33    31    32    1
    34    33    37    2
    35    33    38    1
    36    34    35    1
    37    34    36    1
    38    34    38    1
    39    34    39    1
    40    39    40    1
    41    39    41    1
    42    39    42    1
@<TRIPOS>SUBSTRUCTURE
     1 1           1 GROUP             0 ****  ****    0  
@<TRIPOS>MOLECULE
Molecule Name_00319
    42    42     1     0     0
SMALL
NO_CHARGES
****
Generated from the CSD

@<TRIPOS>ATOM
     1 C1       3.4689  -0.3032  -0.0788   C.ar      1 1      0.0000
     2 C2       2.9944  -0.9178   1.0587   C.ar      1 1      0.0000
     3 C3       1.6302  -0.9263   1.2857   C.ar      1 1      0.0000
     4 C4       0.7431  -0.3299   0.3964   C.ar      1 1      0.0000
     5 C5       1.2652   0.2760  -0.7410   C.ar      1 1      0.0000
     6 C6       2.6259   0.2962  -0.9880   C.ar      1 1      0.0000
     7 H7       3.6762  -1.3852   1.7615   H         1 1      0.0000
     8 H8       1.2492  -1.4109   2.1781   H         1 1      0.0000
     9 H9       0.5943   0.7440  -1.4536   H         1 1      0.0000
    10 H10      3.0205   0.7740  -1.8786   H         1 1      0.0000
    11 N11      4.9151  -0.2869  -0.3296   N.pl3     1 1      0.0000
    12 O12      5.3201   0.2618  -1.3425   O.2       1 1      0.0000
    13 O13      5.6494  -0.8229   0.4857   O.2       1 1      0.0000
    14 CL3     -0.7634  -0.3340   0.6597   C.3       1 1      0.0000
    15 CL1     -1.5195  -1.0736  -0.4803   C.3       1 1      0.0000
    16 H16     -1.5237  -0.4341  -1.3712   H         1 1      0.0000
    17 H17     -0.9534  -1.9766  -0.7402   H         1 1      0.0000
    18 CL      -2.9689  -1.4899  -0.1735   C.3       1 1      0.0000
    19 CL2     -3.6138  -0.4271   0.6972   C.3       1 1      0.0000
    20 H20     -4.6685  -0.6441   0.8531   H         1 1      0.0000
    21 H21     -3.1300  -0.3802   1.6706   H         1 1      0.0000
    22 H22     -3.5347   0.5531   0.2317   H         1 1      0.0000
    23 OL2     -0.9843  -0.9696   1.9126   O.3       1 1      0.0000
    24 H24     -0.9227  -1.9501   1.7990   H         1 1      0.0000
    25 N25     -3.7265  -1.6057  -1.3919   N.3       1 1      0.0000
    26 H26     -4.6617  -1.9205  -1.1338   H         1 1      0.0000
    27 C27     -3.8883  -0.3913  -2.1932   C.3       1 1      0.0000
    28 H28     -3.5394  -0.5515  -3.2112   H         1 1      0.0000
    29 H29     -4.9340  -0.0940  -2.2362   H         1 1      0.0000
    30 H30     -3.3194   0.4316  -1.7655   H         1 1      0.0000
    31 OL1     -2.9650  -2.7017   0.5717   O.3       1 1      0.0000
    32 H32     -3.8953  -2.9558   0.7908   H         1 1      0.0000
    33 CL4     -1.1636   1.1526   0.7446   C.2       1 1      0.0000
    34 C34     -1.6571   3.1069  -0.5058   C.3       1 1      0.0000
    35 H35     -2.1403   3.3394  -1.4628   H         1 1      0.0000
    36 H36     -2.3727   3.3351   0.2937   H         1 1      0.0000
    37 OL3     -1.3436   1.7330   1.7796   O.2       1 1      0.0000
    38 OL4     -1.2812   1.6987  -0.4595   O.3       1 1      0.0000
    39 C39     -0.4301   3.9180  -0.3415   C.3       1 1      0.0000
    40 H40      0.2817   3.7061  -1.1366   H         1 1      0.0000
    41 H41     -0.6634   4.9803  -0.3698   H         1 1      0.0000
    42 H42      0.0507   3.7018   0.6103   H         1 1      0.0000
@<TRIPOS>BOND
     1     1     2   ar
     2     1     6   ar
     3     1    11    1
     4     2     3   ar
     5     2     7    1
     6     3     4   ar
     7     3     8    1
     8     4     5   ar
     9     4    14    1
    10     5     6   ar
    11     5     9    1
    12     6    10    1
    13    11    12    2
    14    11    13    2
    15    14    15    1
    16    14    23    1
    17    14    33    1
    18    15    16    1
    19    15    17    1
    20    15    18    1
    21    18    19    1
    22    18    25    1
    23    18    31    1
    24    19    20    1
    25    19    21    1
    26    19    22    1
    27    23    24    1
    28    25    26    1
    29    25    27    1
    30    27    28    1
    31    27    29    1
    32    27    30    1
    33    31    32    1
    34    33    37    2
    35    33    38    1
    36    34    35    1
    37    34    36    1
    38    34    38    1
    39    34    39    1
    40    39    40    1
    41    39    41    1
    42    39    42    1
@<TRIPOS>SUBSTRUCTURE
     1 1           1 GROUP             0 ****  ****    0  
@<TRIPOS>MOLECULE
Molecule Name_00320
    42    42     1     0     0
SMALL
NO_CHARGES
****
Generated from the CSD

@<TRIPOS>ATOM
     1 C1       3.4297  -0.3283  -0.0810   C.ar      1 1      0.0000
     2 C2       2.9364  -0.9260   1.0574   C.ar      1 1      0.0000
     3 C3       1.5735  -0.8842   1.2889   C.ar      1 1      0.0000
     4 C4       0.7064  -0.2542   0.4031   C.ar      1 1      0.0000
     5 C5       1.2469   0.3332  -0.7354   C.ar      1 1      0.0000
     6 C6       2.6066   0.3032  -0.9868   C.ar      1 1      0.0000
     7 H7       3.6026  -1.4193   1.7575   H         1 1      0.0000
     8 H8       1.1777  -1.3552   2.1820   H         1 1      0.0000
     9 H9       0.5916   0.8266  -1.4454   H         1 1      0.0000
    10 H10      3.0159   0.7669  -1.8782   H         1 1      0.0000
    11 N11      4.8747  -0.3654  -0.3365   N.pl3     1 1      0.0000
    12 O12      5.2966   0.1691  -1.3502   O.2       1 1      0.0000
    13 O13      5.5912  -0.9292   0.4759   O.2       1 1      0.0000
    14 CL3     -0.7984  -0.2026   0.6713   C.3       1 1      0.0000
    15 CL1     -1.5851  -0.9124  -0.4669   C.3       1 1      0.0000
    16 H16     -1.5681  -0.2724  -1.3573   H         1 1      0.0000
    17 H17     -1.0539  -1.8357  -0.7293   H         1 1      0.0000
    18 CL      -3.0481  -1.2745  -0.1560   C.3       1 1      0.0000
    19 CL2     -3.6496  -0.1902   0.7193   C.3       1 1      0.0000
    20 H20     -4.7111  -0.3678   0.8786   H         1 1      0.0000
    21 H21     -3.1608  -0.1636   1.6910   H         1 1      0.0000
    22 H22     -3.5354   0.7874   0.2556   H         1 1      0.0000
    23 OL2     -1.0387  -0.8309   1.9242   O.3       1 1      0.0000
    24 H24     -1.3744  -1.7488   1.7726   H         1 1      0.0000
    25 N25     -3.8137  -1.3588  -1.3720   N.3       1 1      0.0000
    26 H26     -3.7757  -0.4401  -1.8137   H         1 1      0.0000
    27 C27     -3.3718  -2.3338  -2.3706   C.3       1 1      0.0000
    28 H28     -3.3898  -3.3413  -1.9603   H         1 1      0.0000
    29 H29     -4.0201  -2.3120  -3.2441   H         1 1      0.0000
    30 H30     -2.3564  -2.1187  -2.6967   H         1 1      0.0000
    31 OL1     -3.0873  -2.4873   0.5865   O.3       1 1      0.0000
    32 H32     -4.0258  -2.7067   0.8083   H         1 1      0.0000
    33 CL4     -1.1428   1.2977   0.7590   C.2       1 1      0.0000
    34 C34     -1.5674   3.2703  -0.4880   C.3       1 1      0.0000
    35 H35     -2.0448   3.5217  -1.4431   H         1 1      0.0000
    36 H36     -2.2714   3.5241   0.3141   H         1 1      0.0000
    37 OL3     -1.2978   1.8833   1.7951   O.2       1 1      0.0000
    38 OL4     -1.2439   1.8491  -0.4443   O.3       1 1      0.0000
    39 C39     -0.3106   4.0352  -0.3269   C.3       1 1      0.0000
    40 H40      0.3903   3.7978  -1.1245   H         1 1      0.0000
    41 H41     -0.5043   5.1055  -0.3534   H         1 1      0.0000
    42 H42      0.1648   3.8002   0.6231   H         1 1      0.0000
@<TRIPOS>BOND
     1     1     2   ar
     2     1     6   ar
     3     1    11    1
     4     2     3   ar
     5     2     7    1
     6     3     4   ar
     7     3     8    1
     8     4     5   ar
     9     4    14    1
    10     5     6   ar
    11     5     9    1
    12     6    10    1
    13    11    12    2
    14    11    13    2
    15    14    15    1
    16    14    23    1
    17    14    33    1
    18    15    16    1
    19    15    17    1
    20    15    18    1
    21    18    19    1
    22    18    25    1
    23    18    31    1
    24    19    20    1
    25    19    21    1
    26    19    22    1
    27    23    24    1
    28    25    26    1
    29    25    27    1
    30    27    28    1
    31    27    29    1
    32    27    30    1
    33    31    32    1
    34    33    37    2
    35    33    38    1
    36    34    35    1
    37    34    36    1
    38    34    38    1
    39    34    39    1
    40    39    40    1
    41    39    41    1
    42    39    42    1
@<TRIPOS>SUBSTRUCTURE
     1 1           1 GROUP             0 ****  ****    0  
@<TRIPOS>MOLECULE
Molecule Name_00321
    42    42     1     0     0
SMALL
NO_CHARGES
****
Generated from the CSD

@<TRIPOS>ATOM
     1 C1       2.8118  -0.5483  -0.2107   C.ar      1 1      0.0000
     2 C2       2.4661  -0.6364   1.1195   C.ar      1 1      0.0000
     3 C3       1.1547  -0.3850   1.4801   C.ar      1 1      0.0000
     4 C4       0.1942  -0.0469   0.5333   C.ar      1 1      0.0000
     5 C5       0.5862   0.0272  -0.7988   C.ar      1 1      0.0000
     6 C6       1.8919  -0.2203  -1.1817   C.ar      1 1      0.0000
     7 H7       3.2065  -0.8975   1.8684   H         1 1      0.0000
     8 H8       0.8748  -0.4552   2.5255   H         1 1      0.0000
     9 H9      -0.1449   0.2838  -1.5581   H         1 1      0.0000
    10 H10      2.1851  -0.1575  -2.2245   H         1 1      0.0000
    11 N11      4.2009  -0.8118  -0.6050   N.pl3     1 1      0.0000
    12 O12      5.0565  -0.8257   0.2662   O.2       1 1      0.0000
    13 O13      4.4397  -1.0056  -1.7868   O.2       1 1      0.0000
    14 CL3     -1.2515   0.2404   0.9409   C.3       1 1      0.0000
    15 CL1     -2.2412  -0.2677  -0.1457   C.3       1 1      0.0000
    16 H16     -3.2622  -0.0127   0.1628   H         1 1      0.0000
    17 H17     -2.0439   0.2805  -1.0751   H         1 1      0.0000
    18 CL      -2.1894  -1.7736  -0.4587   C.3       1 1      0.0000
    19 CL2     -3.5900  -2.2583  -0.7854   C.3       1 1      0.0000
    20 H20     -3.5599  -3.2456  -1.2415   H         1 1      0.0000
    21 H21     -4.1969  -2.3195   0.1156   H         1 1      0.0000
    22 H22     -4.0811  -1.5792  -1.4793   H         1 1      0.0000
    23 OL2     -1.4886  -0.4042   2.1862   O.3       1 1      0.0000
    24 H24     -2.4072  -0.2016   2.4916   H         1 1      0.0000
    25 N25     -1.3422  -2.0210  -1.5958   N.3       1 1      0.0000
    26 H26     -1.3197  -3.0308  -1.7380   H         1 1      0.0000
    27 C27     -1.7422  -1.4172  -2.8680   C.3       1 1      0.0000
    28 H28     -1.5516  -0.3460  -2.8633   H         1 1      0.0000
    29 H29     -1.1876  -1.8564  -3.6946   H         1 1      0.0000
    30 H30     -2.8033  -1.5719  -3.0516   H         1 1      0.0000
    31 OL1     -1.7556  -2.4818   0.6963   O.3       1 1      0.0000
    32 H32     -1.7467  -3.4517   0.5030   H         1 1      0.0000
    33 CL4     -1.3265   1.7703   1.1163   C.2       1 1      0.0000
    34 C34     -1.1126   3.8646   0.0232   C.3       1 1      0.0000
    35 H35     -1.3253   4.2678  -0.9746   H         1 1      0.0000
    36 H36     -1.9105   4.2017   0.6964   H         1 1      0.0000
    37 OL3     -1.5852   2.3067   2.1583   O.2       1 1      0.0000
    38 OL4     -1.0709   2.4076  -0.0198   O.3       1 1      0.0000
    39 C39      0.2008   4.3503   0.5023   C.3       1 1      0.0000
    40 H40      0.9976   4.0296  -0.1655   H         1 1      0.0000
    41 H41      0.2159   5.4371   0.5506   H         1 1      0.0000
    42 H42      0.4156   3.9639   1.4965   H         1 1      0.0000
@<TRIPOS>BOND
     1     1     2   ar
     2     1     6   ar
     3     1    11    1
     4     2     3   ar
     5     2     7    1
     6     3     4   ar
     7     3     8    1
     8     4     5   ar
     9     4    14    1
    10     5     6   ar
    11     5     9    1
    12     6    10    1
    13    11    12    2
    14    11    13    2
    15    14    15    1
    16    14    23    1
    17    14    33    1
    18    15    16    1
    19    15    17    1
    20    15    18    1
    21    18    19    1
    22    18    25    1
    23    18    31    1
    24    19    20    1
    25    19    21    1
    26    19    22    1
    27    23    24    1
    28    25    26    1
    29    25    27    1
    30    27    28    1
    31    27    29    1
    32    27    30    1
    33    31    32    1
    34    33    37    2
    35    33    38    1
    36    34    35    1
    37    34    36    1
    38    34    38    1
    39    34    39    1
    40    39    40    1
    41    39    41    1
    42    39    42    1
@<TRIPOS>SUBSTRUCTURE
     1 1           1 GROUP             0 ****  ****    0  
@<TRIPOS>MOLECULE
Molecule Name_00322
    42    42     1     0     0
SMALL
NO_CHARGES
****
Generated from the CSD

@<TRIPOS>ATOM
     1 C1       3.5537  -0.4200  -0.0788   C.ar      1 1      0.0000
     2 C2       2.6967  -0.1180  -1.1137   C.ar      1 1      0.0000
     3 C3       1.3364  -0.1068  -0.8641   C.ar      1 1      0.0000
     4 C4       0.8282  -0.3944   0.3978   C.ar      1 1      0.0000
     5 C5       1.7295  -0.6904   1.4143   C.ar      1 1      0.0000
     6 C6       3.0937  -0.7072   1.1871   C.ar      1 1      0.0000
     7 H7       3.0805   0.1065  -2.1035   H         1 1      0.0000
     8 H8       0.6558   0.1329  -1.6737   H         1 1      0.0000
     9 H9       1.3594  -0.9133   2.4095   H         1 1      0.0000
    10 H10      3.7863  -0.9415   1.9887   H         1 1      0.0000
    11 N11      4.9995  -0.4360  -0.3323   N.pl3     1 1      0.0000
    12 O12      5.7462  -0.7056   0.5955   O.2       1 1      0.0000
    13 O13      5.3916  -0.1790  -1.4599   O.2       1 1      0.0000
    14 CL3     -0.6779  -0.3907   0.6636   C.3       1 1      0.0000
    15 CL1     -1.4597  -0.8709  -0.5920   C.3       1 1      0.0000
    16 H16     -1.4351  -0.0751  -1.3463   H         1 1      0.0000
    17 H17     -0.9297  -1.7307  -1.0201   H         1 1      0.0000
    18 CL      -2.9257  -1.2787  -0.3627   C.3       1 1      0.0000
    19 CL2     -3.5290  -0.3760   0.6977   C.3       1 1      0.0000
    20 H20     -4.5889  -0.5860   0.8254   H         1 1      0.0000
    21 H21     -3.0363  -0.5244   1.6563   H         1 1      0.0000
    22 H22     -3.4219   0.6705   0.4199   H         1 1      0.0000
    23 OL2     -0.9257  -1.2438   1.7741   O.3       1 1      0.0000
    24 H24     -0.5722  -2.1469   1.5801   H         1 1      0.0000
    25 N25     -3.6841  -1.1293  -1.5770   N.3       1 1      0.0000
    26 H26     -4.6321  -1.4493  -1.3789   H         1 1      0.0000
    27 C27     -3.7939   0.2211  -2.1315   C.3       1 1      0.0000
    28 H28     -3.4457   0.2445  -3.1620   H         1 1      0.0000
    29 H29     -4.8270   0.5620  -2.1150   H         1 1      0.0000
    30 H30     -3.1958   0.9243  -1.5556   H         1 1      0.0000
    31 OL1     -2.9734  -2.6094   0.1379   O.3       1 1      0.0000
    32 H32     -3.9139  -2.8626   0.3094   H         1 1      0.0000
    33 CL4     -1.0206   1.0668   1.0314   C.2       1 1      0.0000
    34 C34     -1.7003   3.1762   0.1858   C.3       1 1      0.0000
    35 H35     -2.5537   3.2508   0.8710   H         1 1      0.0000
    36 H36     -0.8567   3.7067   0.6444   H         1 1      0.0000
    37 OL3     -0.9857   1.4938   2.1525   O.2       1 1      0.0000
    38 OL4     -1.3545   1.7775  -0.0389   O.3       1 1      0.0000
    39 C39     -2.0381   3.7841  -1.1206   C.3       1 1      0.0000
    40 H40     -2.8811   3.2708  -1.5784   H         1 1      0.0000
    41 H41     -2.3038   4.8323  -1.0011   H         1 1      0.0000
    42 H42     -1.1934   3.7243  -1.8038   H         1 1      0.0000
@<TRIPOS>BOND
     1     1     2   ar
     2     1     6   ar
     3     1    11    1
     4     2     3   ar
     5     2     7    1
     6     3     4   ar
     7     3     8    1
     8     4     5   ar
     9     4    14    1
    10     5     6   ar
    11     5     9    1
    12     6    10    1
    13    11    12    2
    14    11    13    2
    15    14    15    1
    16    14    23    1
    17    14    33    1
    18    15    16    1
    19    15    17    1
    20    15    18    1
    21    18    19    1
    22    18    25    1
    23    18    31    1
    24    19    20    1
    25    19    21    1
    26    19    22    1
    27    23    24    1
    28    25    26    1
    29    25    27    1
    30    27    28    1
    31    27    29    1
    32    27    30    1
    33    31    32    1
    34    33    37    2
    35    33    38    1
    36    34    35    1
    37    34    36    1
    38    34    38    1
    39    34    39    1
    40    39    40    1
    41    39    41    1
    42    39    42    1
@<TRIPOS>SUBSTRUCTURE
     1 1           1 GROUP             0 ****  ****    0  
@<TRIPOS>MOLECULE
Molecule Name_00323
    42    42     1     0     0
SMALL
NO_CHARGES
****
Generated from the CSD

@<TRIPOS>ATOM
     1 C1       3.5143  -0.4467  -0.0737   C.ar      1 1      0.0000
     2 C2       2.6589  -0.1371  -1.1076   C.ar      1 1      0.0000
     3 C3       1.3022  -0.0722  -0.8465   C.ar      1 1      0.0000
     4 C4       0.7960  -0.3140   0.4258   C.ar      1 1      0.0000
     5 C5       1.6959  -0.6197   1.4407   C.ar      1 1      0.0000
     6 C6       3.0564  -0.6898   1.2021   C.ar      1 1      0.0000
     7 H7       3.0409   0.0520  -2.1053   H         1 1      0.0000
     8 H8       0.6228   0.1738  -1.6553   H         1 1      0.0000
     9 H9       1.3275  -0.8075   2.4437   H         1 1      0.0000
    10 H10      3.7479  -0.9310   2.0027   H         1 1      0.0000
    11 N11      4.9562  -0.5196  -0.3393   N.pl3     1 1      0.0000
    12 O12      5.7017  -0.7952   0.5878   O.2       1 1      0.0000
    13 O13      5.3465  -0.3013  -1.4756   O.2       1 1      0.0000
    14 CL3     -0.7064  -0.2511   0.7044   C.3       1 1      0.0000
    15 CL1     -1.5164  -0.7305  -0.5335   C.3       1 1      0.0000
    16 H16     -1.4706   0.0471  -1.3055   H         1 1      0.0000
    17 H17     -1.0215  -1.6180  -0.9468   H         1 1      0.0000
    18 CL      -2.9939  -1.0804  -0.2827   C.3       1 1      0.0000
    19 CL2     -3.5542  -0.1349   0.7641   C.3       1 1      0.0000
    20 H20     -4.6196  -0.3041   0.9058   H         1 1      0.0000
    21 H21     -3.0576  -0.2810   1.7211   H         1 1      0.0000
    22 H22     -3.4126   0.9010   0.4634   H         1 1      0.0000
    23 OL2     -0.9737  -1.0705   1.8356   O.3       1 1      0.0000
    24 H24     -1.3423  -1.9372   1.5339   H         1 1      0.0000
    25 N25     -3.7581  -0.9287  -1.4930   N.3       1 1      0.0000
    26 H26     -3.6817   0.0487  -1.7745   H         1 1      0.0000
    27 C27     -3.3524  -1.7395  -2.6424   C.3       1 1      0.0000
    28 H28     -3.4123  -2.8000  -2.4068   H         1 1      0.0000
    29 H29     -3.9963  -1.5455  -3.4977   H         1 1      0.0000
    30 H30     -2.3281  -1.5138  -2.9313   H         1 1      0.0000
    31 OL1     -3.0844  -2.3980   0.2461   O.3       1 1      0.0000
    32 H32     -4.0317  -2.6135   0.4312   H         1 1      0.0000
    33 CL4     -0.9940   1.2253   1.0429   C.2       1 1      0.0000
    34 C34     -1.6066   3.3386   0.1568   C.3       1 1      0.0000
    35 H35     -2.4505   3.4583   0.8474   H         1 1      0.0000
    36 H36     -0.7406   3.8487   0.5963   H         1 1      0.0000
    37 OL3     -0.9335   1.6751   2.1539   O.2       1 1      0.0000
    38 OL4     -1.3125   1.9240  -0.0400   O.3       1 1      0.0000
    39 C39     -1.9348   3.9295  -1.1599   C.3       1 1      0.0000
    40 H40     -2.7997   3.4367  -1.5990   H         1 1      0.0000
    41 H41     -2.1622   4.9889  -1.0613   H         1 1      0.0000
    42 H42     -1.0992   3.8249  -1.8487   H         1 1      0.0000
@<TRIPOS>BOND
     1     1     2   ar
     2     1     6   ar
     3     1    11    1
     4     2     3   ar
     5     2     7    1
     6     3     4   ar
     7     3     8    1
     8     4     5   ar
     9     4    14    1
    10     5     6   ar
    11     5     9    1
    12     6    10    1
    13    11    12    2
    14    11    13    2
    15    14    15    1
    16    14    23    1
    17    14    33    1
    18    15    16    1
    19    15    17    1
    20    15    18    1
    21    18    19    1
    22    18    25    1
    23    18    31    1
    24    19    20    1
    25    19    21    1
    26    19    22    1
    27    23    24    1
    28    25    26    1
    29    25    27    1
    30    27    28    1
    31    27    29    1
    32    27    30    1
    33    31    32    1
    34    33    37    2
    35    33    38    1
    36    34    35    1
    37    34    36    1
    38    34    38    1
    39    34    39    1
    40    39    40    1
    41    39    41    1
    42    39    42    1
@<TRIPOS>SUBSTRUCTURE
     1 1           1 GROUP             0 ****  ****    0  
@<TRIPOS>MOLECULE
Molecule Name_00324
    42    42     1     0     0
SMALL
NO_CHARGES
****
Generated from the CSD

@<TRIPOS>ATOM
     1 C1       3.5998  -0.4094  -0.1657   C.ar      1 1      0.0000
     2 C2       2.9048   0.4286  -1.0091   C.ar      1 1      0.0000
     3 C3       1.5318   0.5184  -0.8684   C.ar      1 1      0.0000
     4 C4       0.8520  -0.2164   0.0966   C.ar      1 1      0.0000
     5 C5       1.5936  -1.0472   0.9292   C.ar      1 1      0.0000
     6 C6       2.9671  -1.1523   0.8062   C.ar      1 1      0.0000
     7 H7       3.4231   1.0059  -1.7676   H         1 1      0.0000
     8 H8       0.9783   1.1784  -1.5274   H         1 1      0.0000
     9 H9       1.0881  -1.6274   1.6940   H         1 1      0.0000
    10 H10      3.5340  -1.8057   1.4612   H         1 1      0.0000
    11 N11      5.0572  -0.5137  -0.3066   N.pl3     1 1      0.0000
    12 O12      5.6590  -1.2610   0.4488   O.2       1 1      0.0000
    13 O13      5.6033   0.1514  -1.1729   O.2       1 1      0.0000
    14 CL3     -0.6677  -0.1201   0.2391   C.3       1 1      0.0000
    15 CL1     -1.3733  -1.1618  -0.6747   C.3       1 1      0.0000
    16 H16     -1.1482  -0.9207  -1.7206   H         1 1      0.0000
    17 H17     -0.9361  -2.1479  -0.4749   H         1 1      0.0000
    18 CL      -2.9002  -1.2755  -0.5195   C.3       1 1      0.0000
    19 CL2     -3.5094  -1.6150  -1.8675   C.3       1 1      0.0000
    20 H20     -4.5922  -1.6913  -1.7931   H         1 1      0.0000
    21 H21     -3.2734  -0.8475  -2.6017   H         1 1      0.0000
    22 H22     -3.1272  -2.5649  -2.2353   H         1 1      0.0000
    23 OL2     -0.9913  -0.3408   1.6062   O.3       1 1      0.0000
    24 H24     -1.9675  -0.2455   1.7324   H         1 1      0.0000
    25 N25     -3.2336  -2.3222   0.4106   N.3       1 1      0.0000
    26 H26     -2.7943  -2.0835   1.2997   H         1 1      0.0000
    27 C27     -4.6550  -2.5453   0.6804   C.3       1 1      0.0000
    28 H28     -5.1847  -2.8062  -0.2335   H         1 1      0.0000
    29 H29     -4.7898  -3.3559   1.3934   H         1 1      0.0000
    30 H30     -5.1141  -1.6500   1.0944   H         1 1      0.0000
    31 OL1     -3.4298  -0.0167  -0.1212   O.3       1 1      0.0000
    32 H32     -4.4155  -0.0770  -0.0674   H         1 1      0.0000
    33 CL4     -1.0209   1.3268  -0.1596   C.2       1 1      0.0000
    34 C34     -1.5790   3.4849   0.6513   C.3       1 1      0.0000
    35 H35     -0.7764   3.9772   0.0883   H         1 1      0.0000
    36 H36     -2.4947   3.5470   0.0505   H         1 1      0.0000
    37 OL3     -1.0901   1.7034  -1.2970   O.2       1 1      0.0000
    38 OL4     -1.2355   2.0906   0.9047   O.3       1 1      0.0000
    39 C39     -1.7758   4.1565   1.9554   C.3       1 1      0.0000
    40 H40     -0.8687   4.1092   2.5543   H         1 1      0.0000
    41 H41     -2.0349   5.2038   1.8147   H         1 1      0.0000
    42 H42     -2.5776   3.6814   2.5167   H         1 1      0.0000
@<TRIPOS>BOND
     1     1     2   ar
     2     1     6   ar
     3     1    11    1
     4     2     3   ar
     5     2     7    1
     6     3     4   ar
     7     3     8    1
     8     4     5   ar
     9     4    14    1
    10     5     6   ar
    11     5     9    1
    12     6    10    1
    13    11    12    2
    14    11    13    2
    15    14    15    1
    16    14    23    1
    17    14    33    1
    18    15    16    1
    19    15    17    1
    20    15    18    1
    21    18    19    1
    22    18    25    1
    23    18    31    1
    24    19    20    1
    25    19    21    1
    26    19    22    1
    27    23    24    1
    28    25    26    1
    29    25    27    1
    30    27    28    1
    31    27    29    1
    32    27    30    1
    33    31    32    1
    34    33    37    2
    35    33    38    1
    36    34    35    1
    37    34    36    1
    38    34    38    1
    39    34    39    1
    40    39    40    1
    41    39    41    1
    42    39    42    1
@<TRIPOS>SUBSTRUCTURE
     1 1           1 GROUP             0 ****  ****    0  
@<TRIPOS>MOLECULE
Molecule Name_00325
    42    42     1     0     0
SMALL
NO_CHARGES
****
Generated from the CSD

@<TRIPOS>ATOM
     1 C1       3.6138  -0.4049  -0.1137   C.ar      1 1      0.0000
     2 C2       3.0289  -0.9822   0.9914   C.ar      1 1      0.0000
     3 C3       1.6572  -0.8860   1.1398   C.ar      1 1      0.0000
     4 C4       0.8712  -0.2224   0.2043   C.ar      1 1      0.0000
     5 C5       1.5028   0.3426  -0.8981   C.ar      1 1      0.0000
     6 C6       2.8730   0.2584  -1.0665   C.ar      1 1      0.0000
     7 H7       3.6312  -1.5013   1.7297   H         1 1      0.0000
     8 H8       1.1894  -1.3406   2.0063   H         1 1      0.0000
     9 H9       0.9120   0.8615  -1.6455   H         1 1      0.0000
    10 H10      3.3538   0.7051  -1.9305   H         1 1      0.0000
    11 N11      5.0690  -0.4997  -0.2811   N.pl3     1 1      0.0000
    12 O12      5.7119  -1.0912   0.5722   O.2       1 1      0.0000
    13 O13      5.5726   0.0172  -1.2662   O.2       1 1      0.0000
    14 CL3     -0.6438  -0.1108   0.3807   C.3       1 1      0.0000
    15 CL1     -1.3685  -1.2941  -0.3215   C.3       1 1      0.0000
    16 H16     -1.0843  -1.3007  -1.3807   H         1 1      0.0000
    17 H17     -0.9986  -2.2312   0.1126   H         1 1      0.0000
    18 CL      -2.9046  -1.2984  -0.2300   C.3       1 1      0.0000
    19 CL2     -3.4695  -0.4746  -1.3727   C.3       1 1      0.0000
    20 H20     -4.5284  -0.6825  -1.5114   H         1 1      0.0000
    21 H21     -3.3561   0.5892  -1.1741   H         1 1      0.0000
    22 H22     -2.9546  -0.7023  -2.3037   H         1 1      0.0000
    23 OL2     -0.9198  -0.1012   1.7758   O.3       1 1      0.0000
    24 H24     -1.8923   0.0092   1.9178   H         1 1      0.0000
    25 N25     -3.4103  -2.6416  -0.3399   N.3       1 1      0.0000
    26 H26     -2.9823  -3.1846   0.4100   H         1 1      0.0000
    27 C27     -4.8589  -2.8190  -0.2256   C.3       1 1      0.0000
    28 H28     -5.3658  -2.4307  -1.1065   H         1 1      0.0000
    29 H29     -5.1117  -3.8725  -0.1260   H         1 1      0.0000
    30 H30     -5.2442  -2.2941   0.6461   H         1 1      0.0000
    31 OL1     -3.3077  -0.6721   0.9821   O.3       1 1      0.0000
    32 H32     -4.2934  -0.5936   0.9995   H         1 1      0.0000
    33 CL4     -1.0251   1.2473  -0.2416   C.2       1 1      0.0000
    34 C34     -1.5845   3.5065   0.2164   C.3       1 1      0.0000
    35 H35     -0.8042   3.9036  -0.4445   H         1 1      0.0000
    36 H36     -2.5178   3.4618  -0.3584   H         1 1      0.0000
    37 OL3     -1.1313   1.4291  -1.4232   O.2       1 1      0.0000
    38 OL4     -1.2178   2.1760   0.6871   O.3       1 1      0.0000
    39 C39     -1.7514   4.3841   1.3963   C.3       1 1      0.0000
    40 H40     -0.8270   4.4431   1.9670   H         1 1      0.0000
    41 H41     -2.0265   5.3917   1.0917   H         1 1      0.0000
    42 H42     -2.5313   4.0037   2.0527   H         1 1      0.0000
@<TRIPOS>BOND
     1     1     2   ar
     2     1     6   ar
     3     1    11    1
     4     2     3   ar
     5     2     7    1
     6     3     4   ar
     7     3     8    1
     8     4     5   ar
     9     4    14    1
    10     5     6   ar
    11     5     9    1
    12     6    10    1
    13    11    12    2
    14    11    13    2
    15    14    15    1
    16    14    23    1
    17    14    33    1
    18    15    16    1
    19    15    17    1
    20    15    18    1
    21    18    19    1
    22    18    25    1
    23    18    31    1
    24    19    20    1
    25    19    21    1
    26    19    22    1
    27    23    24    1
    28    25    26    1
    29    25    27    1
    30    27    28    1
    31    27    29    1
    32    27    30    1
    33    31    32    1
    34    33    37    2
    35    33    38    1
    36    34    35    1
    37    34    36    1
    38    34    38    1
    39    34    39    1
    40    39    40    1
    41    39    41    1
    42    39    42    1
@<TRIPOS>SUBSTRUCTURE
     1 1           1 GROUP             0 ****  ****    0  
@<TRIPOS>MOLECULE
Molecule Name_00326
    42    42     1     0     0
SMALL
NO_CHARGES
****
Generated from the CSD

@<TRIPOS>ATOM
     1 C1       3.5192  -0.4863  -0.1042   C.ar      1 1      0.0000
     2 C2       2.9457  -0.9770   1.0477   C.ar      1 1      0.0000
     3 C3       1.5812  -0.8316   1.2210   C.ar      1 1      0.0000
     4 C4       0.7914  -0.2039   0.2643   C.ar      1 1      0.0000
     5 C5       1.4113   0.2734  -0.8852   C.ar      1 1      0.0000
     6 C6       2.7740   0.1387  -1.0793   C.ar      1 1      0.0000
     7 H7       3.5512  -1.4672   1.8029   H         1 1      0.0000
     8 H8       1.1224  -1.2180   2.1246   H         1 1      0.0000
     9 H9       0.8170   0.7625  -1.6498   H         1 1      0.0000
    10 H10      3.2458   0.5171  -1.9801   H         1 1      0.0000
    11 N11      4.9666  -0.6340  -0.2985   N.pl3     1 1      0.0000
    12 O12      5.6134  -1.1906   0.5750   O.2       1 1      0.0000
    13 O13      5.4601  -0.1937  -1.3250   O.2       1 1      0.0000
    14 CL3     -0.7151  -0.0371   0.4679   C.3       1 1      0.0000
    15 CL1     -1.4896  -1.2400  -0.1416   C.3       1 1      0.0000
    16 H16     -1.2243  -1.3270  -1.2022   H         1 1      0.0000
    17 H17     -1.1424  -2.1577   0.3489   H         1 1      0.0000
    18 CL      -3.0232  -1.1872  -0.0265   C.3       1 1      0.0000
    19 CL2     -3.5815  -0.4260  -1.2150   C.3       1 1      0.0000
    20 H20     -4.6391  -0.6429  -1.3496   H         1 1      0.0000
    21 H21     -3.4710   0.6469  -1.0722   H         1 1      0.0000
    22 H22     -3.0599  -0.7018  -2.1291   H         1 1      0.0000
    23 OL2     -0.9562   0.0675   1.8656   O.3       1 1      0.0000
    24 H24     -1.9215   0.2150   2.0224   H         1 1      0.0000
    25 N25     -3.5733  -2.5173  -0.0349   N.3       1 1      0.0000
    26 H26     -4.5848  -2.4233   0.0569   H         1 1      0.0000
    27 C27     -3.3244  -3.3332  -1.2247   C.3       1 1      0.0000
    28 H28     -2.2566  -3.4726  -1.3803   H         1 1      0.0000
    29 H29     -3.7829  -4.3145  -1.1223   H         1 1      0.0000
    30 H30     -3.7369  -2.8573  -2.1119   H         1 1      0.0000
    31 OL1     -3.3847  -0.4658   1.1451   O.3       1 1      0.0000
    32 H32     -4.3703  -0.4099   1.2057   H         1 1      0.0000
    33 CL4     -1.0736   1.2902  -0.2299   C.2       1 1      0.0000
    34 C34     -1.5531   3.5901   0.0971   C.3       1 1      0.0000
    35 H35     -0.7804   3.9202  -0.6081   H         1 1      0.0000
    36 H36     -2.5032   3.5384  -0.4489   H         1 1      0.0000
    37 OL3     -1.2077   1.4002  -1.4175   O.2       1 1      0.0000
    38 OL4     -1.2126   2.2813   0.6423   O.3       1 1      0.0000
    39 C39     -1.6608   4.5454   1.2224   C.3       1 1      0.0000
    40 H40     -0.7194   4.6114   1.7637   H         1 1      0.0000
    41 H41     -1.9146   5.5398   0.8613   H         1 1      0.0000
    42 H42     -2.4327   4.2317   1.9221   H         1 1      0.0000
@<TRIPOS>BOND
     1     1     2   ar
     2     1     6   ar
     3     1    11    1
     4     2     3   ar
     5     2     7    1
     6     3     4   ar
     7     3     8    1
     8     4     5   ar
     9     4    14    1
    10     5     6   ar
    11     5     9    1
    12     6    10    1
    13    11    12    2
    14    11    13    2
    15    14    15    1
    16    14    23    1
    17    14    33    1
    18    15    16    1
    19    15    17    1
    20    15    18    1
    21    18    19    1
    22    18    25    1
    23    18    31    1
    24    19    20    1
    25    19    21    1
    26    19    22    1
    27    23    24    1
    28    25    26    1
    29    25    27    1
    30    27    28    1
    31    27    29    1
    32    27    30    1
    33    31    32    1
    34    33    37    2
    35    33    38    1
    36    34    35    1
    37    34    36    1
    38    34    38    1
    39    34    39    1
    40    39    40    1
    41    39    41    1
    42    39    42    1
@<TRIPOS>SUBSTRUCTURE
     1 1           1 GROUP             0 ****  ****    0  
@<TRIPOS>MOLECULE
Molecule Name_00327
    42    42     1     0     0
SMALL
NO_CHARGES
****
Generated from the CSD

@<TRIPOS>ATOM
     1 C1       3.5164  -0.4803  -0.1347   C.ar      1 1      0.0000
     2 C2       2.8993  -1.0885   0.9357   C.ar      1 1      0.0000
     3 C3       1.5299  -0.9523   1.0745   C.ar      1 1      0.0000
     4 C4       0.7780  -0.2187   0.1636   C.ar      1 1      0.0000
     5 C5       1.4414   0.3756  -0.9042   C.ar      1 1      0.0000
     6 C6       2.8098   0.2523  -1.0624   C.ar      1 1      0.0000
     7 H7       3.4749  -1.6622   1.6546   H         1 1      0.0000
     8 H8       1.0369  -1.4308   1.9136   H         1 1      0.0000
     9 H9       0.8774   0.9491  -1.6321   H         1 1      0.0000
    10 H10      3.3157   0.7224  -1.8993   H         1 1      0.0000
    11 N11      4.9695  -0.6170  -0.2916   N.pl3     1 1      0.0000
    12 O12      5.5818  -1.2699   0.5392   O.2       1 1      0.0000
    13 O13      5.5019  -0.0719  -1.2458   O.2       1 1      0.0000
    14 CL3     -0.7343  -0.0634   0.3297   C.3       1 1      0.0000
    15 CL1     -1.4903  -1.1873  -0.4344   C.3       1 1      0.0000
    16 H16     -1.1871  -1.1605  -1.4880   H         1 1      0.0000
    17 H17     -1.1642  -2.1554  -0.0346   H         1 1      0.0000
    18 CL      -3.0269  -1.1361  -0.3689   C.3       1 1      0.0000
    19 CL2     -3.5390  -0.2431  -1.4842   C.3       1 1      0.0000
    20 H20     -4.5921  -0.4351  -1.6792   H         1 1      0.0000
    21 H21     -3.4292   0.8064  -1.2192   H         1 1      0.0000
    22 H22     -2.9862  -0.4200  -2.4044   H         1 1      0.0000
    23 OL2     -1.0261  -0.1091   1.7208   O.3       1 1      0.0000
    24 H24     -1.9960   0.0279   1.8579   H         1 1      0.0000
    25 N25     -3.5810  -2.4528  -0.5453   N.3       1 1      0.0000
    26 H26     -3.2625  -2.7922  -1.4529   H         1 1      0.0000
    27 C27     -3.2152  -3.4672   0.4449   C.3       1 1      0.0000
    28 H28     -3.2785  -3.0626   1.4529   H         1 1      0.0000
    29 H29     -3.8807  -4.3255   0.3817   H         1 1      0.0000
    30 H30     -2.1971  -3.8150   0.2826   H         1 1      0.0000
    31 OL1     -3.4282  -0.5469   0.8622   O.3       1 1      0.0000
    32 H32     -4.4151  -0.4907   0.8935   H         1 1      0.0000
    33 CL4     -1.0621   1.3344  -0.2323   C.2       1 1      0.0000
    34 C34     -1.5452   3.5888   0.3249   C.3       1 1      0.0000
    35 H35     -0.7458   3.9876  -0.3118   H         1 1      0.0000
    36 H36     -2.4746   3.6037  -0.2576   H         1 1      0.0000
    37 OL3     -1.1519   1.5735  -1.4050   O.2       1 1      0.0000
    38 OL4     -1.2297   2.2260   0.7367   O.3       1 1      0.0000
    39 C39     -1.6910   4.4172   1.5427   C.3       1 1      0.0000
    40 H40     -0.7699   4.4171   2.1218   H         1 1      0.0000
    41 H41     -1.9277   5.4468   1.2827   H         1 1      0.0000
    42 H42     -2.4893   4.0353   2.1757   H         1 1      0.0000
@<TRIPOS>BOND
     1     1     2   ar
     2     1     6   ar
     3     1    11    1
     4     2     3   ar
     5     2     7    1
     6     3     4   ar
     7     3     8    1
     8     4     5   ar
     9     4    14    1
    10     5     6   ar
    11     5     9    1
    12     6    10    1
    13    11    12    2
    14    11    13    2
    15    14    15    1
    16    14    23    1
    17    14    33    1
    18    15    16    1
    19    15    17    1
    20    15    18    1
    21    18    19    1
    22    18    25    1
    23    18    31    1
    24    19    20    1
    25    19    21    1
    26    19    22    1
    27    23    24    1
    28    25    26    1
    29    25    27    1
    30    27    28    1
    31    27    29    1
    32    27    30    1
    33    31    32    1
    34    33    37    2
    35    33    38    1
    36    34    35    1
    37    34    36    1
    38    34    38    1
    39    34    39    1
    40    39    40    1
    41    39    41    1
    42    39    42    1
@<TRIPOS>SUBSTRUCTURE
     1 1           1 GROUP             0 ****  ****    0  
@<TRIPOS>MOLECULE
Molecule Name_00328
    42    42     1     0     0
SMALL
NO_CHARGES
****
Generated from the CSD

@<TRIPOS>ATOM
     1 C1       3.3308  -0.2618  -0.1187   C.ar      1 1      0.0000
     2 C2       2.8848  -0.3958   1.1774   C.ar      1 1      0.0000
     3 C3       1.5218  -0.3844   1.4123   C.ar      1 1      0.0000
     4 C4       0.6081  -0.2391   0.3743   C.ar      1 1      0.0000
     5 C5       1.1021  -0.1105  -0.9190   C.ar      1 1      0.0000
     6 C6       2.4609  -0.1194  -1.1768   C.ar      1 1      0.0000
     7 H7       3.5874  -0.5080   1.9965   H         1 1      0.0000
     8 H8       1.1633  -0.4921   2.4302   H         1 1      0.0000
     9 H9       0.4104  -0.0011  -1.7476   H         1 1      0.0000
    10 H10      2.8335  -0.0164  -2.1906   H         1 1      0.0000
    11 N11      4.7752  -0.2714  -0.3798   N.pl3     1 1      0.0000
    12 O12      5.5195  -0.6710   0.5019   O.2       1 1      0.0000
    13 O13      5.1687   0.1208  -1.4673   O.2       1 1      0.0000
    14 CL3     -0.8973  -0.2165   0.6431   C.3       1 1      0.0000
    15 CL1     -1.6788  -0.8360  -0.5501   C.3       1 1      0.0000
    16 H16     -1.7313  -0.0957  -1.3575   H         1 1      0.0000
    17 H17     -1.1025  -1.6861  -0.9355   H         1 1      0.0000
    18 CL      -3.1058  -1.3249  -0.2449   C.3       1 1      0.0000
    19 CL2     -3.9075  -0.1752   0.3373   C.3       1 1      0.0000
    20 H20     -4.9703  -0.3120   0.1494   H         1 1      0.0000
    21 H21     -3.7594  -0.1075   1.4130   H         1 1      0.0000
    22 H22     -3.6038   0.7706  -0.1068   H         1 1      0.0000
    23 OL2     -1.1363  -0.9449   1.8409   O.3       1 1      0.0000
    24 H24     -2.0315  -0.7147   2.1925   H         1 1      0.0000
    25 N25     -3.7527  -1.7698  -1.4514   N.3       1 1      0.0000
    26 H26     -3.7936  -0.9689  -2.0817   H         1 1      0.0000
    27 C27     -3.1124  -2.8621  -2.1862   C.3       1 1      0.0000
    28 H28     -3.0380  -3.7528  -1.5657   H         1 1      0.0000
    29 H29     -3.6846  -3.1158  -3.0761   H         1 1      0.0000
    30 H30     -2.1084  -2.5811  -2.4974   H         1 1      0.0000
    31 OL1     -3.0540  -2.3471   0.7431   O.3       1 1      0.0000
    32 H32     -3.9728  -2.6435   0.9577   H         1 1      0.0000
    33 CL4     -1.2492   1.2702   0.8508   C.2       1 1      0.0000
    34 C34     -0.7477   3.4953   0.2001   C.3       1 1      0.0000
    35 H35     -1.7884   3.7248  -0.0603   H         1 1      0.0000
    36 H36     -0.5801   3.8301   1.2312   H         1 1      0.0000
    37 OL3     -2.0956   1.6514   1.6115   O.2       1 1      0.0000
    38 OL4     -0.5041   2.0619   0.0891   O.3       1 1      0.0000
    39 C39      0.1764   4.1935  -0.7214   C.3       1 1      0.0000
    40 H40      0.0101   3.8755  -1.7485   H         1 1      0.0000
    41 H41      0.0297   5.2704  -0.6720   H         1 1      0.0000
    42 H42      1.2118   3.9803  -0.4640   H         1 1      0.0000
@<TRIPOS>BOND
     1     1     2   ar
     2     1     6   ar
     3     1    11    1
     4     2     3   ar
     5     2     7    1
     6     3     4   ar
     7     3     8    1
     8     4     5   ar
     9     4    14    1
    10     5     6   ar
    11     5     9    1
    12     6    10    1
    13    11    12    2
    14    11    13    2
    15    14    15    1
    16    14    23    1
    17    14    33    1
    18    15    16    1
    19    15    17    1
    20    15    18    1
    21    18    19    1
    22    18    25    1
    23    18    31    1
    24    19    20    1
    25    19    21    1
    26    19    22    1
    27    23    24    1
    28    25    26    1
    29    25    27    1
    30    27    28    1
    31    27    29    1
    32    27    30    1
    33    31    32    1
    34    33    37    2
    35    33    38    1
    36    34    35    1
    37    34    36    1
    38    34    38    1
    39    34    39    1
    40    39    40    1
    41    39    41    1
    42    39    42    1
@<TRIPOS>SUBSTRUCTURE
     1 1           1 GROUP             0 ****  ****    0  
@<TRIPOS>MOLECULE
Molecule Name_00329
    42    42     1     0     0
SMALL
NO_CHARGES
****
Generated from the CSD

@<TRIPOS>ATOM
     1 C1       3.6550  -0.3778  -0.1048   C.ar      1 1      0.0000
     2 C2       3.1888  -1.1217   0.9563   C.ar      1 1      0.0000
     3 C3       1.8248  -1.1733   1.1791   C.ar      1 1      0.0000
     4 C4       0.9299  -0.4929   0.3609   C.ar      1 1      0.0000
     5 C5       1.4438   0.2430  -0.7010   C.ar      1 1      0.0000
     6 C6       2.8040   0.3085  -0.9424   C.ar      1 1      0.0000
     7 H7       3.8767  -1.6558   1.6034   H         1 1      0.0000
     8 H8       1.4504  -1.7594   2.0113   H         1 1      0.0000
     9 H9       0.7667   0.7789  -1.3578   H         1 1      0.0000
    10 H10      3.1923   0.8878  -1.7736   H         1 1      0.0000
    11 N11      5.1008  -0.3147  -0.3504   N.pl3     1 1      0.0000
    12 O12      5.4984   0.3490  -1.2951   O.2       1 1      0.0000
    13 O13      5.8422  -0.9288   0.4010   O.2       1 1      0.0000
    14 CL3     -0.5764  -0.5460   0.6201   C.3       1 1      0.0000
    15 CL1     -1.3247  -1.1474  -0.6033   C.3       1 1      0.0000
    16 H16     -0.9576  -0.6590  -1.5140   H         1 1      0.0000
    17 H17     -1.0585  -2.2086  -0.6827   H         1 1      0.0000
    18 CL      -2.8596  -1.0401  -0.5788   C.3       1 1      0.0000
    19 CL2     -3.3440  -1.2170   0.8486   C.3       1 1      0.0000
    20 H20     -4.4308  -1.2530   0.8854   H         1 1      0.0000
    21 H21     -2.9597  -2.1414   1.2746   H         1 1      0.0000
    22 H22     -3.0109  -0.3914   1.4741   H         1 1      0.0000
    23 OL2     -0.7899  -1.3339   1.7846   O.3       1 1      0.0000
    24 H24     -1.2938  -0.8052   2.4514   H         1 1      0.0000
    25 N25     -3.2799   0.2541  -1.0482   N.3       1 1      0.0000
    26 H26     -2.9231   0.3581  -1.9981   H         1 1      0.0000
    27 C27     -4.7208   0.5076  -1.1006   C.3       1 1      0.0000
    28 H28     -5.1536   0.4814  -0.1028   H         1 1      0.0000
    29 H29     -4.9250   1.4849  -1.5331   H         1 1      0.0000
    30 H30     -5.2226  -0.2431  -1.7075   H         1 1      0.0000
    31 OL1     -3.4197  -2.0968  -1.3492   O.3       1 1      0.0000
    32 H32     -4.4060  -2.0629  -1.2855   H         1 1      0.0000
    33 CL4     -0.9929   0.9142   0.8876   C.2       1 1      0.0000
    34 C34     -1.4540   3.0171  -0.1080   C.3       1 1      0.0000
    35 H35     -1.0075   3.4485   0.7964   H         1 1      0.0000
    36 H36     -1.0852   3.5898  -0.9680   H         1 1      0.0000
    37 OL3     -1.2112   1.3515   1.9838   O.2       1 1      0.0000
    38 OL4     -1.0772   1.6144  -0.2370   O.3       1 1      0.0000
    39 C39     -2.9303   3.0942  -0.0368   C.3       1 1      0.0000
    40 H40     -3.3169   2.4044   0.7105   H         1 1      0.0000
    41 H41     -3.2516   4.0986   0.2307   H         1 1      0.0000
    42 H42     -3.3765   2.8397  -0.9959   H         1 1      0.0000
@<TRIPOS>BOND
     1     1     2   ar
     2     1     6   ar
     3     1    11    1
     4     2     3   ar
     5     2     7    1
     6     3     4   ar
     7     3     8    1
     8     4     5   ar
     9     4    14    1
    10     5     6   ar
    11     5     9    1
    12     6    10    1
    13    11    12    2
    14    11    13    2
    15    14    15    1
    16    14    23    1
    17    14    33    1
    18    15    16    1
    19    15    17    1
    20    15    18    1
    21    18    19    1
    22    18    25    1
    23    18    31    1
    24    19    20    1
    25    19    21    1
    26    19    22    1
    27    23    24    1
    28    25    26    1
    29    25    27    1
    30    27    28    1
    31    27    29    1
    32    27    30    1
    33    31    32    1
    34    33    37    2
    35    33    38    1
    36    34    35    1
    37    34    36    1
    38    34    38    1
    39    34    39    1
    40    39    40    1
    41    39    41    1
    42    39    42    1
@<TRIPOS>SUBSTRUCTURE
     1 1           1 GROUP             0 ****  ****    0  
@<TRIPOS>MOLECULE
Molecule Name_00330
    42    42     1     0     0
SMALL
NO_CHARGES
****
Generated from the CSD

@<TRIPOS>ATOM
     1 C1       3.5494  -0.2309  -0.1291   C.ar      1 1      0.0000
     2 C2       3.1299  -0.9684   0.9557   C.ar      1 1      0.0000
     3 C3       1.7719  -1.0866   1.1899   C.ar      1 1      0.0000
     4 C4       0.8371  -0.4782   0.3596   C.ar      1 1      0.0000
     5 C5       1.3046   0.2540  -0.7261   C.ar      1 1      0.0000
     6 C6       2.6580   0.3851  -0.9791   C.ar      1 1      0.0000
     7 H7       3.8492  -1.4466   1.6123   H         1 1      0.0000
     8 H8       1.4343  -1.6682   2.0407   H         1 1      0.0000
     9 H9       0.5960   0.7342  -1.3925   H         1 1      0.0000
    10 H10      3.0098   0.9608  -1.8289   H         1 1      0.0000
    11 N11      4.9883  -0.0976  -0.3868   N.pl3     1 1      0.0000
    12 O12      5.3443   0.5596  -1.3525   O.2       1 1      0.0000
    13 O13      5.7659  -0.6498   0.3759   O.2       1 1      0.0000
    14 CL3     -0.6626  -0.6043   0.6312   C.3       1 1      0.0000
    15 CL1     -1.3847  -1.2790  -0.5696   C.3       1 1      0.0000
    16 H16     -1.0480  -0.7989  -1.4963   H         1 1      0.0000
    17 H17     -1.0642  -2.3269  -0.6201   H         1 1      0.0000
    18 CL      -2.9230  -1.2506  -0.5382   C.3       1 1      0.0000
    19 CL2     -3.3906  -1.4138   0.8965   C.3       1 1      0.0000
    20 H20     -4.4737  -1.5070   0.9409   H         1 1      0.0000
    21 H21     -2.9550  -2.3041   1.3452   H         1 1      0.0000
    22 H22     -3.0995  -0.5545   1.4970   H         1 1      0.0000
    23 OL2     -0.8268  -1.3695   1.8186   O.3       1 1      0.0000
    24 H24     -1.3751  -0.8598   2.4649   H         1 1      0.0000
    25 N25     -3.4122   0.0070  -1.0393   N.3       1 1      0.0000
    26 H26     -3.0660   0.1037  -1.9938   H         1 1      0.0000
    27 C27     -4.8646   0.1840  -1.0894   C.3       1 1      0.0000
    28 H28     -5.2988   0.0927  -0.0960   H         1 1      0.0000
    29 H29     -5.1200   1.1661  -1.4820   H         1 1      0.0000
    30 H30     -5.3227  -0.5667  -1.7300   H         1 1      0.0000
    31 OL1     -3.4313  -2.3553  -1.2766   O.3       1 1      0.0000
    32 H32     -4.4184  -2.3640  -1.2172   H         1 1      0.0000
    33 CL4     -1.1553   0.8384   0.8612   C.2       1 1      0.0000
    34 C34     -1.7444   2.8816  -0.1898   C.3       1 1      0.0000
    35 H35     -2.2228   3.1853  -1.1291   H         1 1      0.0000
    36 H36     -2.4878   2.9810   0.6107   H         1 1      0.0000
    37 OL3     -1.3903   1.2941   1.9463   O.2       1 1      0.0000
    38 OL4     -1.2834   1.5013  -0.2818   O.3       1 1      0.0000
    39 C39     -0.5731   3.7421   0.0896   C.3       1 1      0.0000
    40 H40      0.1654   3.6583  -0.7050   H         1 1      0.0000
    41 H41     -0.8708   4.7857   0.1669   H         1 1      0.0000
    42 H42     -0.0981   3.4550   1.0254   H         1 1      0.0000
@<TRIPOS>BOND
     1     1     2   ar
     2     1     6   ar
     3     1    11    1
     4     2     3   ar
     5     2     7    1
     6     3     4   ar
     7     3     8    1
     8     4     5   ar
     9     4    14    1
    10     5     6   ar
    11     5     9    1
    12     6    10    1
    13    11    12    2
    14    11    13    2
    15    14    15    1
    16    14    23    1
    17    14    33    1
    18    15    16    1
    19    15    17    1
    20    15    18    1
    21    18    19    1
    22    18    25    1
    23    18    31    1
    24    19    20    1
    25    19    21    1
    26    19    22    1
    27    23    24    1
    28    25    26    1
    29    25    27    1
    30    27    28    1
    31    27    29    1
    32    27    30    1
    33    31    32    1
    34    33    37    2
    35    33    38    1
    36    34    35    1
    37    34    36    1
    38    34    38    1
    39    34    39    1
    40    39    40    1
    41    39    41    1
    42    39    42    1
@<TRIPOS>SUBSTRUCTURE
     1 1           1 GROUP             0 ****  ****    0  
@<TRIPOS>MOLECULE
Molecule Name_00331
    42    42     1     0     0
SMALL
NO_CHARGES
****
Generated from the CSD

@<TRIPOS>ATOM
     1 C1       3.5729  -0.2772  -0.2904   C.ar      1 1      0.0000
     2 C2       3.0078   0.4862   0.7069   C.ar      1 1      0.0000
     3 C3       1.6349   0.4491   0.8705   C.ar      1 1      0.0000
     4 C4       0.8279  -0.3344   0.0531   C.ar      1 1      0.0000
     5 C5       1.4408  -1.0921  -0.9387   C.ar      1 1      0.0000
     6 C6       2.8117  -1.0702  -1.1201   C.ar      1 1      0.0000
     7 H7       3.6261   1.1033   1.3503   H         1 1      0.0000
     8 H8       1.1832   1.0456   1.6556   H         1 1      0.0000
     9 H9       0.8345  -1.7161  -1.5867   H         1 1      0.0000
    10 H10      3.2774  -1.6649  -1.8990   H         1 1      0.0000
    11 N11      5.0289  -0.2448  -0.4742   N.pl3     1 1      0.0000
    12 O12      5.5148  -0.9272  -1.3627   O.2       1 1      0.0000
    13 O13      5.6899   0.4631   0.2695   O.2       1 1      0.0000
    14 CL3     -0.6906  -0.3619   0.2332   C.3       1 1      0.0000
    15 CL1     -1.3774  -1.0384  -0.9871   C.3       1 1      0.0000
    16 H16     -1.0652  -0.5163  -1.8995   H         1 1      0.0000
    17 H17     -1.0043  -2.0670  -1.0662   H         1 1      0.0000
    18 CL      -2.9152  -1.0886  -0.9574   C.3       1 1      0.0000
    19 CL2     -3.3871  -2.2600  -1.7992   C.3       1 1      0.0000
    20 H20     -4.3378  -2.0331  -2.2773   H         1 1      0.0000
    21 H21     -2.6632  -2.4921  -2.5775   H         1 1      0.0000
    22 H22     -3.5202  -3.1478  -1.1845   H         1 1      0.0000
    23 OL2     -0.9735  -1.0703   1.4334   O.3       1 1      0.0000
    24 H24     -1.6202  -1.7941   1.2433   H         1 1      0.0000
    25 N25     -3.3855  -1.2741   0.3903   N.3       1 1      0.0000
    26 H26     -3.0623  -0.4731   0.9328   H         1 1      0.0000
    27 C27     -4.8336  -1.3671   0.5833   C.3       1 1      0.0000
    28 H28     -5.1849  -2.3778   0.3860   H         1 1      0.0000
    29 H29     -5.1041  -1.1076   1.6046   H         1 1      0.0000
    30 H30     -5.3565  -0.6895  -0.0884   H         1 1      0.0000
    31 OL1     -3.4383   0.0948  -1.5488   O.3       1 1      0.0000
    32 H32     -4.4101  -0.0136  -1.6966   H         1 1      0.0000
    33 CL4     -1.1076   1.1149   0.3816   C.2       1 1      0.0000
    34 C34     -1.8789   2.7743   1.8909   C.3       1 1      0.0000
    35 H35     -2.4384   3.1718   1.0351   H         1 1      0.0000
    36 H36     -2.5386   2.8099   2.7666   H         1 1      0.0000
    37 OL3     -1.1066   1.8990  -0.5270   O.2       1 1      0.0000
    38 OL4     -1.4629   1.4017   1.6280   O.3       1 1      0.0000
    39 C39     -0.6653   3.5867   2.1309   C.3       1 1      0.0000
    40 H40     -0.0094   3.5661   1.2630   H         1 1      0.0000
    41 H41     -0.9285   4.6230   2.3323   H         1 1      0.0000
    42 H42     -0.1091   3.2062   2.9851   H         1 1      0.0000
@<TRIPOS>BOND
     1     1     2   ar
     2     1     6   ar
     3     1    11    1
     4     2     3   ar
     5     2     7    1
     6     3     4   ar
     7     3     8    1
     8     4     5   ar
     9     4    14    1
    10     5     6   ar
    11     5     9    1
    12     6    10    1
    13    11    12    2
    14    11    13    2
    15    14    15    1
    16    14    23    1
    17    14    33    1
    18    15    16    1
    19    15    17    1
    20    15    18    1
    21    18    19    1
    22    18    25    1
    23    18    31    1
    24    19    20    1
    25    19    21    1
    26    19    22    1
    27    23    24    1
    28    25    26    1
    29    25    27    1
    30    27    28    1
    31    27    29    1
    32    27    30    1
    33    31    32    1
    34    33    37    2
    35    33    38    1
    36    34    35    1
    37    34    36    1
    38    34    38    1
    39    34    39    1
    40    39    40    1
    41    39    41    1
    42    39    42    1
@<TRIPOS>SUBSTRUCTURE
     1 1           1 GROUP             0 ****  ****    0  
@<TRIPOS>MOLECULE
Molecule Name_00332
    42    42     1     0     0
SMALL
NO_CHARGES
****
Generated from the CSD

@<TRIPOS>ATOM
     1 C1       3.4498  -0.3892  -0.1649   C.ar      1 1      0.0000
     2 C2       2.5700  -0.6611  -1.1888   C.ar      1 1      0.0000
     3 C3       1.2134  -0.6291  -0.9212   C.ar      1 1      0.0000
     4 C4       0.7315  -0.3330   0.3491   C.ar      1 1      0.0000
     5 C5       1.6551  -0.0613   1.3523   C.ar      1 1      0.0000
     6 C6       3.0160  -0.0876   1.1069   C.ar      1 1      0.0000
     7 H7       2.9331  -0.8954  -2.1841   H         1 1      0.0000
     8 H8       0.5146  -0.8395  -1.7234   H         1 1      0.0000
     9 H9       1.3054   0.1778   2.3511   H         1 1      0.0000
    10 H10      3.7263   0.1247   1.8991   H         1 1      0.0000
    11 N11      4.8919  -0.4215  -0.4370   N.pl3     1 1      0.0000
    12 O12      5.6592  -0.1781   0.4813   O.2       1 1      0.0000
    13 O13      5.2607  -0.6902  -1.5697   O.2       1 1      0.0000
    14 CL3     -0.7697  -0.3101   0.6400   C.3       1 1      0.0000
    15 CL1     -1.5022  -1.4257  -0.1581   C.3       1 1      0.0000
    16 H16     -1.1696  -1.3862  -1.2024   H         1 1      0.0000
    17 H17     -1.1861  -2.3981   0.2393   H         1 1      0.0000
    18 CL      -3.0402  -1.3770  -0.1353   C.3       1 1      0.0000
    19 CL2     -3.4971  -0.8390   1.2083   C.3       1 1      0.0000
    20 H20     -4.5786  -0.9086   1.3041   H         1 1      0.0000
    21 H21     -3.0477  -1.4033   2.0228   H         1 1      0.0000
    22 H22     -3.2132   0.2051   1.3224   H         1 1      0.0000
    23 OL2     -0.9442  -0.4882   2.0402   O.3       1 1      0.0000
    24 H24     -1.5822   0.1865   2.3803   H         1 1      0.0000
    25 N25     -3.5302  -0.5036  -1.1692   N.3       1 1      0.0000
    26 H26     -3.1494   0.4241  -0.9823   H         1 1      0.0000
    27 C27     -3.1778  -0.8422  -2.5491   C.3       1 1      0.0000
    28 H28     -3.3056  -1.9075  -2.7294   H         1 1      0.0000
    29 H29     -3.8082  -0.3015  -3.2519   H         1 1      0.0000
    30 H30     -2.1411  -0.5853  -2.7566   H         1 1      0.0000
    31 OL1     -3.5568  -2.6966  -0.2600   O.3       1 1      0.0000
    32 H32     -4.5445  -2.6681  -0.2197   H         1 1      0.0000
    33 CL4     -1.2413   1.0978   0.2247   C.2       1 1      0.0000
    34 C34     -1.6167   3.3192   0.9668   C.3       1 1      0.0000
    35 H35     -2.4576   3.3222   0.2623   H         1 1      0.0000
    36 H36     -1.9540   3.8040   1.8912   H         1 1      0.0000
    37 OL3     -1.6055   1.3749  -0.8848   O.2       1 1      0.0000
    38 OL4     -1.1926   1.9512   1.2403   O.3       1 1      0.0000
    39 C39     -0.4664   4.0536   0.3940   C.3       1 1      0.0000
    40 H40     -0.1315   3.5859  -0.5295   H         1 1      0.0000
    41 H41     -0.7378   5.0838   0.1732   H         1 1      0.0000
    42 H42      0.3693   4.0651   1.0905   H         1 1      0.0000
@<TRIPOS>BOND
     1     1     2   ar
     2     1     6   ar
     3     1    11    1
     4     2     3   ar
     5     2     7    1
     6     3     4   ar
     7     3     8    1
     8     4     5   ar
     9     4    14    1
    10     5     6   ar
    11     5     9    1
    12     6    10    1
    13    11    12    2
    14    11    13    2
    15    14    15    1
    16    14    23    1
    17    14    33    1
    18    15    16    1
    19    15    17    1
    20    15    18    1
    21    18    19    1
    22    18    25    1
    23    18    31    1
    24    19    20    1
    25    19    21    1
    26    19    22    1
    27    23    24    1
    28    25    26    1
    29    25    27    1
    30    27    28    1
    31    27    29    1
    32    27    30    1
    33    31    32    1
    34    33    37    2
    35    33    38    1
    36    34    35    1
    37    34    36    1
    38    34    38    1
    39    34    39    1
    40    39    40    1
    41    39    41    1
    42    39    42    1
@<TRIPOS>SUBSTRUCTURE
     1 1           1 GROUP             0 ****  ****    0  
@<TRIPOS>MOLECULE
Molecule Name_00333
    42    42     1     0     0
SMALL
NO_CHARGES
****
Generated from the CSD

@<TRIPOS>ATOM
     1 C1       3.5478  -0.5502  -0.1310   C.ar      1 1      0.0000
     2 C2       2.6659  -0.8290  -1.1513   C.ar      1 1      0.0000
     3 C3       1.3101  -0.7121  -0.9041   C.ar      1 1      0.0000
     4 C4       0.8309  -0.3252   0.3425   C.ar      1 1      0.0000
     5 C5       1.7567  -0.0501   1.3428   C.ar      1 1      0.0000
     6 C6       3.1168  -0.1603   1.1176   C.ar      1 1      0.0000
     7 H7       3.0269  -1.1336  -2.1281   H         1 1      0.0000
     8 H8       0.6099  -0.9274  -1.7038   H         1 1      0.0000
     9 H9       1.4093   0.2589   2.3231   H         1 1      0.0000
    10 H10      3.8288   0.0557   1.9073   H         1 1      0.0000
    11 N11      4.9890  -0.6720  -0.3815   N.pl3     1 1      0.0000
    12 O12      5.7581  -0.4214   0.5333   O.2       1 1      0.0000
    13 O13      5.3553  -1.0186  -1.4937   O.2       1 1      0.0000
    14 CL3     -0.6701  -0.2087   0.6116   C.3       1 1      0.0000
    15 CL1     -1.4519  -1.3247  -0.1377   C.3       1 1      0.0000
    16 H16     -1.1065  -1.3573  -1.1781   H         1 1      0.0000
    17 H17     -1.1920  -2.2902   0.3136   H         1 1      0.0000
    18 CL      -2.9853  -1.1946  -0.1382   C.3       1 1      0.0000
    19 CL2     -3.4276  -0.5639   1.1695   C.3       1 1      0.0000
    20 H20     -4.5122  -0.5717   1.2541   H         1 1      0.0000
    21 H21     -3.0175  -1.1076   2.0180   H         1 1      0.0000
    22 H22     -3.0901   0.4685   1.2333   H         1 1      0.0000
    23 OL2     -0.8688  -0.3040   2.0166   O.3       1 1      0.0000
    24 H24     -1.4739   0.4200   2.3128   H         1 1      0.0000
    25 N25     -3.4172  -0.3519  -1.2224   N.3       1 1      0.0000
    26 H26     -2.9900   0.5630  -1.0785   H         1 1      0.0000
    27 C27     -3.0684  -0.7802  -2.5781   C.3       1 1      0.0000
    28 H28     -3.2511  -1.8452  -2.7051   H         1 1      0.0000
    29 H29     -3.6611  -0.2442  -3.3164   H         1 1      0.0000
    30 H30     -2.0172  -0.5897  -2.7843   H         1 1      0.0000
    31 OL1     -3.5696  -2.4901  -0.2016   O.3       1 1      0.0000
    32 H32     -4.5549  -2.4079  -0.1762   H         1 1      0.0000
    33 CL4     -1.0620   1.1983   0.1177   C.2       1 1      0.0000
    34 C34     -1.3273   3.4721   0.7390   C.3       1 1      0.0000
    35 H35     -0.8322   4.1746   1.4206   H         1 1      0.0000
    36 H36     -0.9902   3.7015  -0.2794   H         1 1      0.0000
    37 OL3     -1.3990   1.4357  -1.0094   O.2       1 1      0.0000
    38 OL4     -0.9792   2.0999   1.0885   O.3       1 1      0.0000
    39 C39     -2.7973   3.6146   0.8359   C.3       1 1      0.0000
    40 H40     -3.1399   3.3993   1.8459   H         1 1      0.0000
    41 H41     -3.1041   4.6272   0.5826   H         1 1      0.0000
    42 H42     -3.2970   2.9287   0.1551   H         1 1      0.0000
@<TRIPOS>BOND
     1     1     2   ar
     2     1     6   ar
     3     1    11    1
     4     2     3   ar
     5     2     7    1
     6     3     4   ar
     7     3     8    1
     8     4     5   ar
     9     4    14    1
    10     5     6   ar
    11     5     9    1
    12     6    10    1
    13    11    12    2
    14    11    13    2
    15    14    15    1
    16    14    23    1
    17    14    33    1
    18    15    16    1
    19    15    17    1
    20    15    18    1
    21    18    19    1
    22    18    25    1
    23    18    31    1
    24    19    20    1
    25    19    21    1
    26    19    22    1
    27    23    24    1
    28    25    26    1
    29    25    27    1
    30    27    28    1
    31    27    29    1
    32    27    30    1
    33    31    32    1
    34    33    37    2
    35    33    38    1
    36    34    35    1
    37    34    36    1
    38    34    38    1
    39    34    39    1
    40    39    40    1
    41    39    41    1
    42    39    42    1
@<TRIPOS>SUBSTRUCTURE
     1 1           1 GROUP             0 ****  ****    0  
@<TRIPOS>MOLECULE
Molecule Name_00334
    42    42     1     0     0
SMALL
NO_CHARGES
****
Generated from the CSD

@<TRIPOS>ATOM
     1 C1       3.5237  -0.2519  -0.2033   C.ar      1 1      0.0000
     2 C2       3.0125  -1.2239   0.6277   C.ar      1 1      0.0000
     3 C3       1.6428  -1.2856   0.8089   C.ar      1 1      0.0000
     4 C4       0.7863  -0.3919   0.1755   C.ar      1 1      0.0000
     5 C5       1.3450   0.5711  -0.6576   C.ar      1 1      0.0000
     6 C6       2.7118   0.6509  -0.8533   C.ar      1 1      0.0000
     7 H7       3.6701  -1.9261   1.1293   H         1 1      0.0000
     8 H8       1.2329  -2.0501   1.4598   H         1 1      0.0000
     9 H9       0.6986   1.2772  -1.1679   H         1 1      0.0000
    10 H10      3.1352   1.4082  -1.5047   H         1 1      0.0000
    11 N11      4.9761  -0.1761  -0.4023   N.pl3     1 1      0.0000
    12 O12      5.6984  -0.7811   0.3745   O.2       1 1      0.0000
    13 O13      5.3979   0.4886  -1.3358   O.2       1 1      0.0000
    14 CL3     -0.7265  -0.4594   0.3893   C.3       1 1      0.0000
    15 CL1     -1.4677  -0.6194  -0.9684   C.3       1 1      0.0000
    16 H16     -1.4592   0.3460  -1.4887   H         1 1      0.0000
    17 H17     -0.8990  -1.3208  -1.5912   H         1 1      0.0000
    18 CL      -2.9216  -1.1181  -0.8922   C.3       1 1      0.0000
    19 CL2     -2.9299  -2.6323  -0.9952   C.3       1 1      0.0000
    20 H20     -3.9473  -3.0160  -0.9558   H         1 1      0.0000
    21 H21     -2.4810  -2.9577  -1.9313   H         1 1      0.0000
    22 H22     -2.3679  -3.0777  -0.1770   H         1 1      0.0000
    23 OL2     -0.9956  -1.5603   1.2485   O.3       1 1      0.0000
    24 H24     -1.9592  -1.5759   1.4706   H         1 1      0.0000
    25 N25     -3.5165  -0.7410   0.3630   N.3       1 1      0.0000
    26 H26     -3.4886   0.2774   0.4133   H         1 1      0.0000
    27 C27     -4.9056  -1.1441   0.5892   C.3       1 1      0.0000
    28 H28     -5.0044  -2.2268   0.5487   H         1 1      0.0000
    29 H29     -5.2506  -0.8085   1.5649   H         1 1      0.0000
    30 H30     -5.5596  -0.7155  -0.1674   H         1 1      0.0000
    31 OL1     -3.6528  -0.6148  -2.0039   O.3       1 1      0.0000
    32 H32     -4.5779  -0.9631  -1.9737   H         1 1      0.0000
    33 CL4     -1.0954   0.8617   1.0934   C.2       1 1      0.0000
    34 C34     -1.2222   3.2187   0.8599   C.3       1 1      0.0000
    35 H35     -2.2765   3.2588   1.1602   H         1 1      0.0000
    36 H36     -0.6134   3.4070   1.7529   H         1 1      0.0000
    37 OL3     -1.5024   0.9213   2.2208   O.2       1 1      0.0000
    38 OL4     -0.9063   1.9096   0.3008   O.3       1 1      0.0000
    39 C39     -0.9451   4.2414  -0.1735   C.3       1 1      0.0000
    40 H40     -1.5526   4.0689  -1.0594   H         1 1      0.0000
    41 H41     -1.1674   5.2384   0.2012   H         1 1      0.0000
    42 H42      0.1014   4.2163  -0.4700   H         1 1      0.0000
@<TRIPOS>BOND
     1     1     2   ar
     2     1     6   ar
     3     1    11    1
     4     2     3   ar
     5     2     7    1
     6     3     4   ar
     7     3     8    1
     8     4     5   ar
     9     4    14    1
    10     5     6   ar
    11     5     9    1
    12     6    10    1
    13    11    12    2
    14    11    13    2
    15    14    15    1
    16    14    23    1
    17    14    33    1
    18    15    16    1
    19    15    17    1
    20    15    18    1
    21    18    19    1
    22    18    25    1
    23    18    31    1
    24    19    20    1
    25    19    21    1
    26    19    22    1
    27    23    24    1
    28    25    26    1
    29    25    27    1
    30    27    28    1
    31    27    29    1
    32    27    30    1
    33    31    32    1
    34    33    37    2
    35    33    38    1
    36    34    35    1
    37    34    36    1
    38    34    38    1
    39    34    39    1
    40    39    40    1
    41    39    41    1
    42    39    42    1
@<TRIPOS>SUBSTRUCTURE
     1 1           1 GROUP             0 ****  ****    0  
@<TRIPOS>MOLECULE
Molecule Name_00335
    42    42     1     0     0
SMALL
NO_CHARGES
****
Generated from the CSD

@<TRIPOS>ATOM
     1 C1       2.8060  -0.7235  -0.3300   C.ar      1 1      0.0000
     2 C2       2.2603  -1.3398   0.7741   C.ar      1 1      0.0000
     3 C3       0.9824  -0.9842   1.1660   C.ar      1 1      0.0000
     4 C4       0.2517  -0.0255   0.4730   C.ar      1 1      0.0000
     5 C5       0.8399   0.5687  -0.6380   C.ar      1 1      0.0000
     6 C6       2.1163   0.2283  -1.0476   C.ar      1 1      0.0000
     7 H7       2.8208  -2.0881   1.3247   H         1 1      0.0000
     8 H8       0.5454  -1.4674   2.0330   H         1 1      0.0000
     9 H9       0.2891   1.3160  -1.1995   H         1 1      0.0000
    10 H10      2.5644   0.7008  -1.9154   H         1 1      0.0000
    11 N11      4.1620  -1.0920  -0.7544   N.pl3     1 1      0.0000
    12 O12      4.6317  -0.5367  -1.7353   O.2       1 1      0.0000
    13 O13      4.7604  -1.9377  -0.1080   O.2       1 1      0.0000
    14 CL3     -1.1567   0.3703   0.9188   C.3       1 1      0.0000
    15 CL1     -2.1835   0.1313  -0.2244   C.3       1 1      0.0000
    16 H16     -3.1940   0.2798   0.1748   H         1 1      0.0000
    17 H17     -2.0293   0.8992  -0.9925   H         1 1      0.0000
    18 CL      -2.1282  -1.2464  -0.9080   C.3       1 1      0.0000
    19 CL2     -1.2253  -1.1578  -2.1247   C.3       1 1      0.0000
    20 H20     -1.6017  -1.7841  -2.9308   H         1 1      0.0000
    21 H21     -1.1685  -0.1342  -2.4891   H         1 1      0.0000
    22 H22     -0.2173  -1.4875  -1.8818   H         1 1      0.0000
    23 OL2     -1.4835  -0.4038   2.0661   O.3       1 1      0.0000
    24 H24     -2.3767  -0.1388   2.3979   H         1 1      0.0000
    25 N25     -1.5889  -2.2320  -0.0082   N.3       1 1      0.0000
    26 H26     -2.1984  -2.2557   0.8094   H         1 1      0.0000
    27 C27     -1.4869  -3.6043  -0.5075   C.3       1 1      0.0000
    28 H28     -0.8455  -3.6486  -1.3852   H         1 1      0.0000
    29 H29     -1.0677  -4.2609   0.2521   H         1 1      0.0000
    30 H30     -2.4667  -3.9880  -0.7840   H         1 1      0.0000
    31 OL1     -3.4271  -1.5971  -1.3702   O.3       1 1      0.0000
    32 H32     -3.3827  -2.4597  -1.8520   H         1 1      0.0000
    33 CL4     -1.0570   1.8611   1.2993   C.2       1 1      0.0000
    34 C34     -0.7019   4.0573   0.4766   C.3       1 1      0.0000
    35 H35     -0.2023   4.2443   1.4351   H         1 1      0.0000
    36 H36     -0.0985   4.5250  -0.3112   H         1 1      0.0000
    37 OL3     -1.1826   2.2692   2.4209   O.2       1 1      0.0000
    38 OL4     -0.8174   2.6232   0.2392   O.3       1 1      0.0000
    39 C39     -2.0647   4.6346   0.4884   C.3       1 1      0.0000
    40 H40     -2.6676   4.1841   1.2741   H         1 1      0.0000
    41 H41     -2.0273   5.7079   0.6632   H         1 1      0.0000
    42 H42     -2.5644   4.4633  -0.4627   H         1 1      0.0000
@<TRIPOS>BOND
     1     1     2   ar
     2     1     6   ar
     3     1    11    1
     4     2     3   ar
     5     2     7    1
     6     3     4   ar
     7     3     8    1
     8     4     5   ar
     9     4    14    1
    10     5     6   ar
    11     5     9    1
    12     6    10    1
    13    11    12    2
    14    11    13    2
    15    14    15    1
    16    14    23    1
    17    14    33    1
    18    15    16    1
    19    15    17    1
    20    15    18    1
    21    18    19    1
    22    18    25    1
    23    18    31    1
    24    19    20    1
    25    19    21    1
    26    19    22    1
    27    23    24    1
    28    25    26    1
    29    25    27    1
    30    27    28    1
    31    27    29    1
    32    27    30    1
    33    31    32    1
    34    33    37    2
    35    33    38    1
    36    34    35    1
    37    34    36    1
    38    34    38    1
    39    34    39    1
    40    39    40    1
    41    39    41    1
    42    39    42    1
@<TRIPOS>SUBSTRUCTURE
     1 1           1 GROUP             0 ****  ****    0  
@<TRIPOS>MOLECULE
Molecule Name_00336
    42    42     1     0     0
SMALL
NO_CHARGES
****
Generated from the CSD

@<TRIPOS>ATOM
     1 C1       2.7137  -0.5690  -0.3609   C.ar      1 1      0.0000
     2 C2       2.2155  -1.1894   0.7631   C.ar      1 1      0.0000
     3 C3       0.9230  -0.8991   1.1608   C.ar      1 1      0.0000
     4 C4       0.1311  -0.0009   0.4540   C.ar      1 1      0.0000
     5 C5       0.6730   0.5998  -0.6769   C.ar      1 1      0.0000
     6 C6       1.9630   0.3241  -1.0926   C.ar      1 1      0.0000
     7 H7       2.8237  -1.8909   1.3245   H         1 1      0.0000
     8 H8       0.5231  -1.3860   2.0435   H         1 1      0.0000
     9 H9       0.0744   1.3005  -1.2494   H         1 1      0.0000
    10 H10      2.3745   0.8010  -1.9761   H         1 1      0.0000
    11 N11      4.0846  -0.8685  -0.7918   N.pl3     1 1      0.0000
    12 O12      4.5118  -0.3103  -1.7904   O.2       1 1      0.0000
    13 O13      4.7373  -1.6626  -0.1326   O.2       1 1      0.0000
    14 CL3     -1.2934   0.3233   0.9060   C.3       1 1      0.0000
    15 CL1     -2.3157  -0.0017  -0.2199   C.3       1 1      0.0000
    16 H16     -3.3293   0.0977   0.1870   H         1 1      0.0000
    17 H17     -2.2138   0.7555  -1.0071   H         1 1      0.0000
    18 CL      -2.1872  -1.3896  -0.8720   C.3       1 1      0.0000
    19 CL2     -1.3028  -1.2779  -2.1004   C.3       1 1      0.0000
    20 H20     -1.6501  -1.9438  -2.8875   H         1 1      0.0000
    21 H21     -1.3091  -0.2616  -2.4889   H         1 1      0.0000
    22 H22     -0.2751  -1.5429  -1.8611   H         1 1      0.0000
    23 OL2     -1.5636  -0.4410   2.0745   O.3       1 1      0.0000
    24 H24     -2.4674  -0.2202   2.4100   H         1 1      0.0000
    25 N25     -1.5830  -2.3208   0.0443   N.3       1 1      0.0000
    26 H26     -2.1820  -2.3604   0.8690   H         1 1      0.0000
    27 C27     -1.4063  -3.6964  -0.4243   C.3       1 1      0.0000
    28 H28     -0.7720  -3.7244  -1.3078   H         1 1      0.0000
    29 H29     -0.9424  -4.3095   0.3456   H         1 1      0.0000
    30 H30     -2.3649  -4.1425  -0.6809   H         1 1      0.0000
    31 OL1     -3.4680  -1.8257  -1.3115   O.3       1 1      0.0000
    32 H32     -3.3783  -2.6954  -1.7738   H         1 1      0.0000
    33 CL4     -1.2767   1.8260   1.2509   C.2       1 1      0.0000
    34 C34     -1.0577   4.0189   0.3738   C.3       1 1      0.0000
    35 H35     -1.3381   4.5389  -0.5506   H         1 1      0.0000
    36 H36     -1.7748   4.3101   1.1512   H         1 1      0.0000
    37 OL3     -1.4149   2.2526   2.3641   O.2       1 1      0.0000
    38 OL4     -1.0920   2.5753   0.1709   O.3       1 1      0.0000
    39 C39      0.3155   4.3961   0.7769   C.3       1 1      0.0000
    40 H40      1.0330   4.1207   0.0067   H         1 1      0.0000
    41 H41      0.3886   5.4693   0.9400   H         1 1      0.0000
    42 H42      0.5986   3.8931   1.6992   H         1 1      0.0000
@<TRIPOS>BOND
     1     1     2   ar
     2     1     6   ar
     3     1    11    1
     4     2     3   ar
     5     2     7    1
     6     3     4   ar
     7     3     8    1
     8     4     5   ar
     9     4    14    1
    10     5     6   ar
    11     5     9    1
    12     6    10    1
    13    11    12    2
    14    11    13    2
    15    14    15    1
    16    14    23    1
    17    14    33    1
    18    15    16    1
    19    15    17    1
    20    15    18    1
    21    18    19    1
    22    18    25    1
    23    18    31    1
    24    19    20    1
    25    19    21    1
    26    19    22    1
    27    23    24    1
    28    25    26    1
    29    25    27    1
    30    27    28    1
    31    27    29    1
    32    27    30    1
    33    31    32    1
    34    33    37    2
    35    33    38    1
    36    34    35    1
    37    34    36    1
    38    34    38    1
    39    34    39    1
    40    39    40    1
    41    39    41    1
    42    39    42    1
@<TRIPOS>SUBSTRUCTURE
     1 1           1 GROUP             0 ****  ****    0  
@<TRIPOS>MOLECULE
Molecule Name_00337
    42    42     1     0     0
SMALL
NO_CHARGES
****
Generated from the CSD

@<TRIPOS>ATOM
     1 C1       3.3854  -0.2399  -0.1184   C.ar      1 1      0.0000
     2 C2       2.4889  -0.1939  -1.1629   C.ar      1 1      0.0000
     3 C3       1.1365  -0.2289  -0.8756   C.ar      1 1      0.0000
     4 C4       0.6749  -0.3110   0.4334   C.ar      1 1      0.0000
     5 C5       1.6148  -0.3515   1.4573   C.ar      1 1      0.0000
     6 C6       2.9719  -0.3177   1.1929   C.ar      1 1      0.0000
     7 H7       2.8362  -0.1316  -2.1889   H         1 1      0.0000
     8 H8       0.4247  -0.1903  -1.6930   H         1 1      0.0000
     9 H9       1.2811  -0.4104   2.4879   H         1 1      0.0000
    10 H10      3.6951  -0.3517   2.0011   H         1 1      0.0000
    11 N11      4.8233  -0.2046  -0.4114   N.pl3     1 1      0.0000
    12 O12      5.6054  -0.2461   0.5255   O.2       1 1      0.0000
    13 O13      5.1739  -0.1354  -1.5791   O.2       1 1      0.0000
    14 CL3     -0.8220  -0.3602   0.7427   C.3       1 1      0.0000
    15 CL1     -1.5936  -1.0997  -0.3870   C.3       1 1      0.0000
    16 H16     -1.4056  -0.5836  -1.3363   H         1 1      0.0000
    17 H17     -1.1757  -2.1092  -0.4861   H         1 1      0.0000
    18 CL      -3.1151  -1.2288  -0.1964   C.3       1 1      0.0000
    19 CL2     -3.7891   0.0131  -0.7505   C.3       1 1      0.0000
    20 H20     -4.8221  -0.1964  -1.0200   H         1 1      0.0000
    21 H21     -3.7867   0.8142  -0.0143   H         1 1      0.0000
    22 H22     -3.2722   0.3683  -1.6395   H         1 1      0.0000
    23 OL2     -0.9870  -1.0235   1.9898   O.3       1 1      0.0000
    24 H24     -1.9459  -1.0345   2.2319   H         1 1      0.0000
    25 N25     -3.6145  -2.3767  -0.9070   N.3       1 1      0.0000
    26 H26     -4.6190  -2.4209  -0.7355   H         1 1      0.0000
    27 C27     -3.4255  -2.3951  -2.3585   C.3       1 1      0.0000
    28 H28     -2.3680  -2.3503  -2.6104   H         1 1      0.0000
    29 H29     -3.8383  -3.3048  -2.7897   H         1 1      0.0000
    30 H30     -3.9208  -1.5449  -2.8228   H         1 1      0.0000
    31 OL1     -3.4141  -1.2876   1.1932   O.3       1 1      0.0000
    32 H32     -4.3937  -1.3449   1.3165   H         1 1      0.0000
    33 CL4     -1.2584   1.1133   0.8672   C.2       1 1      0.0000
    34 C34     -0.8777   3.3246   0.0980   C.3       1 1      0.0000
    35 H35     -1.9276   3.4804  -0.1791   H         1 1      0.0000
    36 H36     -0.7368   3.7238   1.1100   H         1 1      0.0000
    37 OL3     -2.1305   1.4870   1.6022   O.2       1 1      0.0000
    38 OL4     -0.5533   1.9033   0.0667   O.3       1 1      0.0000
    39 C39      0.0126   4.0227  -0.8562   C.3       1 1      0.0000
    40 H40     -0.1279   3.6405  -1.8651   H         1 1      0.0000
    41 H41     -0.1946   5.0907  -0.8664   H         1 1      0.0000
    42 H42      1.0564   3.8825  -0.5830   H         1 1      0.0000
@<TRIPOS>BOND
     1     1     2   ar
     2     1     6   ar
     3     1    11    1
     4     2     3   ar
     5     2     7    1
     6     3     4   ar
     7     3     8    1
     8     4     5   ar
     9     4    14    1
    10     5     6   ar
    11     5     9    1
    12     6    10    1
    13    11    12    2
    14    11    13    2
    15    14    15    1
    16    14    23    1
    17    14    33    1
    18    15    16    1
    19    15    17    1
    20    15    18    1
    21    18    19    1
    22    18    25    1
    23    18    31    1
    24    19    20    1
    25    19    21    1
    26    19    22    1
    27    23    24    1
    28    25    26    1
    29    25    27    1
    30    27    28    1
    31    27    29    1
    32    27    30    1
    33    31    32    1
    34    33    37    2
    35    33    38    1
    36    34    35    1
    37    34    36    1
    38    34    38    1
    39    34    39    1
    40    39    40    1
    41    39    41    1
    42    39    42    1
@<TRIPOS>SUBSTRUCTURE
     1 1           1 GROUP             0 ****  ****    0  
@<TRIPOS>MOLECULE
Molecule Name_00338
    42    42     1     0     0
SMALL
NO_CHARGES
****
Generated from the CSD

@<TRIPOS>ATOM
     1 C1       3.6163  -0.4458  -0.0943   C.ar      1 1      0.0000
     2 C2       3.0155  -1.2284   0.8666   C.ar      1 1      0.0000
     3 C3       1.6466  -1.1307   1.0382   C.ar      1 1      0.0000
     4 C4       0.8791  -0.2644   0.2677   C.ar      1 1      0.0000
     5 C5       1.5262   0.5045  -0.6932   C.ar      1 1      0.0000
     6 C6       2.8939   0.4227  -0.8819   C.ar      1 1      0.0000
     7 H7       3.6034  -1.9071   1.4757   H         1 1      0.0000
     8 H8       1.1664  -1.7460   1.7912   H         1 1      0.0000
     9 H9       0.9497   1.1845  -1.3115   H         1 1      0.0000
    10 H10      3.3869   1.0295  -1.6342   H         1 1      0.0000
    11 N11      5.0687  -0.5402  -0.2845   N.pl3     1 1      0.0000
    12 O12      5.5865   0.1602  -1.1404   O.2       1 1      0.0000
    13 O13      5.6952  -1.3150   0.4215   O.2       1 1      0.0000
    14 CL3     -0.6327  -0.1539   0.4707   C.3       1 1      0.0000
    15 CL1     -1.3947  -0.6214  -0.8018   C.3       1 1      0.0000
    16 H16     -1.2975   0.1522  -1.5731   H         1 1      0.0000
    17 H17     -0.8994  -1.5203  -1.1894   H         1 1      0.0000
    18 CL      -2.8889  -0.9403  -0.6183   C.3       1 1      0.0000
    19 CL2     -3.6303  -0.5824  -1.8933   C.3       1 1      0.0000
    20 H20     -4.6941  -0.7863  -1.7911   H         1 1      0.0000
    21 H21     -3.5084   0.4732  -2.1269   H         1 1      0.0000
    22 H22     -3.2535  -1.1613  -2.7340   H         1 1      0.0000
    23 OL2     -0.9804  -0.9534   1.5942   O.3       1 1      0.0000
    24 H24     -1.9421  -0.8385   1.7944   H         1 1      0.0000
    25 N25     -3.0744  -2.3440  -0.3591   N.3       1 1      0.0000
    26 H26     -2.5489  -2.5640   0.4869   H         1 1      0.0000
    27 C27     -4.4469  -2.8056  -0.1441   C.3       1 1      0.0000
    28 H28     -5.0641  -2.5999  -1.0162   H         1 1      0.0000
    29 H29     -4.4688  -3.8775   0.0413   H         1 1      0.0000
    30 H30     -4.8927  -2.3043   0.7125   H         1 1      0.0000
    31 OL1     -3.4210  -0.1290   0.4221   O.3       1 1      0.0000
    32 H32     -4.3914  -0.2998   0.5084   H         1 1      0.0000
    33 CL4     -0.8919   1.3338   0.7816   C.2       1 1      0.0000
    34 C34     -1.4102   3.4525  -0.1507   C.3       1 1      0.0000
    35 H35     -0.7754   3.8630   0.6442   H         1 1      0.0000
    36 H36     -1.1781   3.9939  -1.0762   H         1 1      0.0000
    37 OL3     -0.8621   1.7950   1.8892   O.2       1 1      0.0000
    38 OL4     -1.1484   2.0281  -0.3204   O.3       1 1      0.0000
    39 C39     -2.8389   3.6213   0.1966   C.3       1 1      0.0000
    40 H40     -3.0761   3.0962   1.1195   H         1 1      0.0000
    41 H41     -3.0809   4.6732   0.3334   H         1 1      0.0000
    42 H42     -3.4767   3.2264  -0.5915   H         1 1      0.0000
@<TRIPOS>BOND
     1     1     2   ar
     2     1     6   ar
     3     1    11    1
     4     2     3   ar
     5     2     7    1
     6     3     4   ar
     7     3     8    1
     8     4     5   ar
     9     4    14    1
    10     5     6   ar
    11     5     9    1
    12     6    10    1
    13    11    12    2
    14    11    13    2
    15    14    15    1
    16    14    23    1
    17    14    33    1
    18    15    16    1
    19    15    17    1
    20    15    18    1
    21    18    19    1
    22    18    25    1
    23    18    31    1
    24    19    20    1
    25    19    21    1
    26    19    22    1
    27    23    24    1
    28    25    26    1
    29    25    27    1
    30    27    28    1
    31    27    29    1
    32    27    30    1
    33    31    32    1
    34    33    37    2
    35    33    38    1
    36    34    35    1
    37    34    36    1
    38    34    38    1
    39    34    39    1
    40    39    40    1
    41    39    41    1
    42    39    42    1
@<TRIPOS>SUBSTRUCTURE
     1 1           1 GROUP             0 ****  ****    0  
@<TRIPOS>MOLECULE
Molecule Name_00339
    42    42     1     0     0
SMALL
NO_CHARGES
****
Generated from the CSD

@<TRIPOS>ATOM
     1 C1       3.5100  -0.2998  -0.1153   C.ar      1 1      0.0000
     2 C2       2.9575  -1.1237   0.8400   C.ar      1 1      0.0000
     3 C3       1.5870  -1.0964   1.0243   C.ar      1 1      0.0000
     4 C4       0.7705  -0.2595   0.2719   C.ar      1 1      0.0000
     5 C5       1.3700   0.5531  -0.6840   C.ar      1 1      0.0000
     6 C6       2.7383   0.5419  -0.8852   C.ar      1 1      0.0000
     7 H7       3.5838  -1.7802   1.4350   H         1 1      0.0000
     8 H8       1.1447  -1.7446   1.7729   H         1 1      0.0000
     9 H9       0.7550   1.2116  -1.2882   H         1 1      0.0000
    10 H10      3.1939   1.1822  -1.6333   H         1 1      0.0000
    11 N11      4.9636  -0.3194  -0.3189   N.pl3     1 1      0.0000
    12 O12      5.4382   0.4169  -1.1696   O.2       1 1      0.0000
    13 O13      5.6340  -1.0712   0.3714   O.2       1 1      0.0000
    14 CL3     -0.7430  -0.2269   0.4890   C.3       1 1      0.0000
    15 CL1     -1.4922  -0.7151  -0.7833   C.3       1 1      0.0000
    16 H16     -1.4405   0.0723  -1.5449   H         1 1      0.0000
    17 H17     -0.9566  -1.5832  -1.1870   H         1 1      0.0000
    18 CL      -2.9671  -1.1103  -0.5915   C.3       1 1      0.0000
    19 CL2     -3.7368  -0.7731  -1.8554   C.3       1 1      0.0000
    20 H20     -4.7882  -1.0310  -1.7471   H         1 1      0.0000
    21 H21     -3.6695   0.2902  -2.0759   H         1 1      0.0000
    22 H22     -3.3393  -1.3216  -2.7069   H         1 1      0.0000
    23 OL2     -1.0404  -1.0572   1.6046   O.3       1 1      0.0000
    24 H24     -2.0051  -0.9939   1.8135   H         1 1      0.0000
    25 N25     -3.0804  -2.5247  -0.3497   N.3       1 1      0.0000
    26 H26     -2.5370  -2.7292   0.4889   H         1 1      0.0000
    27 C27     -4.4264  -3.0567  -0.1295   C.3       1 1      0.0000
    28 H28     -5.0608  -2.8706  -0.9935   H         1 1      0.0000
    29 H29     -4.3933  -4.1307   0.0418   H         1 1      0.0000
    30 H30     -4.8887  -2.5894   0.7375   H         1 1      0.0000
    31 OL1     -3.5294  -0.3400   0.4640   O.3       1 1      0.0000
    32 H32     -4.4893  -0.5599   0.5561   H         1 1      0.0000
    33 CL4     -1.0728   1.2420   0.8220   C.2       1 1      0.0000
    34 C34     -1.7040   3.3441  -0.0774   C.3       1 1      0.0000
    35 H35     -2.3336   3.7013  -0.9016   H         1 1      0.0000
    36 H36     -2.2664   3.4787   0.8548   H         1 1      0.0000
    37 OL3     -1.0560   1.6896   1.9354   O.2       1 1      0.0000
    38 OL4     -1.3734   1.9368  -0.2684   O.3       1 1      0.0000
    39 C39     -0.4402   4.1129  -0.0283   C.3       1 1      0.0000
    40 H40      0.1197   3.9940  -0.9536   H         1 1      0.0000
    41 H41     -0.6390   5.1731   0.1136   H         1 1      0.0000
    42 H42      0.1866   3.7726   0.7933   H         1 1      0.0000
@<TRIPOS>BOND
     1     1     2   ar
     2     1     6   ar
     3     1    11    1
     4     2     3   ar
     5     2     7    1
     6     3     4   ar
     7     3     8    1
     8     4     5   ar
     9     4    14    1
    10     5     6   ar
    11     5     9    1
    12     6    10    1
    13    11    12    2
    14    11    13    2
    15    14    15    1
    16    14    23    1
    17    14    33    1
    18    15    16    1
    19    15    17    1
    20    15    18    1
    21    18    19    1
    22    18    25    1
    23    18    31    1
    24    19    20    1
    25    19    21    1
    26    19    22    1
    27    23    24    1
    28    25    26    1
    29    25    27    1
    30    27    28    1
    31    27    29    1
    32    27    30    1
    33    31    32    1
    34    33    37    2
    35    33    38    1
    36    34    35    1
    37    34    36    1
    38    34    38    1
    39    34    39    1
    40    39    40    1
    41    39    41    1
    42    39    42    1
@<TRIPOS>SUBSTRUCTURE
     1 1           1 GROUP             0 ****  ****    0  
@<TRIPOS>MOLECULE
Molecule Name_00340
    42    42     1     0     0
SMALL
NO_CHARGES
****
Generated from the CSD

@<TRIPOS>ATOM
     1 C1       3.5333  -0.3279  -0.1169   C.ar      1 1      0.0000
     2 C2       2.9762  -0.5175   1.1282   C.ar      1 1      0.0000
     3 C3       1.6006  -0.4495   1.2545   C.ar      1 1      0.0000
     4 C4       0.7834  -0.1936   0.1590   C.ar      1 1      0.0000
     5 C5       1.3879  -0.0120  -1.0800   C.ar      1 1      0.0000
     6 C6       2.7614  -0.0759  -1.2292   C.ar      1 1      0.0000
     7 H7       3.6028  -0.7161   1.9914   H         1 1      0.0000
     8 H8       1.1547  -0.6005   2.2315   H         1 1      0.0000
     9 H9       0.7727   0.1838  -1.9519   H         1 1      0.0000
    10 H10      3.2207   0.0694  -2.2014   H         1 1      0.0000
    11 N11      4.9923  -0.3967  -0.2628   N.pl3     1 1      0.0000
    12 O12      5.6775  -0.3411   0.7465   O.2       1 1      0.0000
    13 O13      5.4565  -0.5065  -1.3869   O.2       1 1      0.0000
    14 CL3     -0.7363  -0.1090   0.3084   C.3       1 1      0.0000
    15 CL1     -1.4325  -1.2430  -0.4963   C.3       1 1      0.0000
    16 H16     -1.4030  -0.9861  -1.5621   H         1 1      0.0000
    17 H17     -0.8460  -2.1621  -0.3748   H         1 1      0.0000
    18 CL      -2.8900  -1.5515  -0.1105   C.3       1 1      0.0000
    19 CL2     -3.5869  -0.2556   0.2616   C.3       1 1      0.0000
    20 H20     -4.6408  -0.4300   0.4679   H         1 1      0.0000
    21 H21     -3.1360   0.1837   1.1490   H         1 1      0.0000
    22 H22     -3.5151   0.4673  -0.5483   H         1 1      0.0000
    23 OL2     -1.0433  -0.2060   1.6936   O.3       1 1      0.0000
    24 H24     -1.2839  -1.1400   1.9123   H         1 1      0.0000
    25 N25     -3.5883  -2.1449  -1.2206   N.3       1 1      0.0000
    26 H26     -3.0865  -2.9977  -1.4682   H         1 1      0.0000
    27 C27     -4.9874  -2.5174  -1.0045   C.3       1 1      0.0000
    28 H28     -5.6045  -1.6328  -0.8617   H         1 1      0.0000
    29 H29     -5.3763  -3.0676  -1.8588   H         1 1      0.0000
    30 H30     -5.0873  -3.1463  -0.1224   H         1 1      0.0000
    31 OL1     -2.9074  -2.3867   1.0410   O.3       1 1      0.0000
    32 H32     -3.8356  -2.4708   1.3720   H         1 1      0.0000
    33 CL4     -1.1180   1.2883  -0.2198   C.2       1 1      0.0000
    34 C34     -1.2179   3.6010   0.2976   C.3       1 1      0.0000
    35 H35     -0.6386   3.8923  -0.5872   H         1 1      0.0000
    36 H36     -2.2816   3.6807   0.0412   H         1 1      0.0000
    37 OL3     -1.5629   1.4839  -1.3172   O.2       1 1      0.0000
    38 OL4     -0.8936   2.2332   0.6851   O.3       1 1      0.0000
    39 C39     -0.8975   4.4917   1.4354   C.3       1 1      0.0000
    40 H40      0.1583   4.4273   1.6901   H         1 1      0.0000
    41 H41     -1.1245   5.5272   1.1904   H         1 1      0.0000
    42 H42     -1.4757   4.2169   2.3151   H         1 1      0.0000
@<TRIPOS>BOND
     1     1     2   ar
     2     1     6   ar
     3     1    11    1
     4     2     3   ar
     5     2     7    1
     6     3     4   ar
     7     3     8    1
     8     4     5   ar
     9     4    14    1
    10     5     6   ar
    11     5     9    1
    12     6    10    1
    13    11    12    2
    14    11    13    2
    15    14    15    1
    16    14    23    1
    17    14    33    1
    18    15    16    1
    19    15    17    1
    20    15    18    1
    21    18    19    1
    22    18    25    1
    23    18    31    1
    24    19    20    1
    25    19    21    1
    26    19    22    1
    27    23    24    1
    28    25    26    1
    29    25    27    1
    30    27    28    1
    31    27    29    1
    32    27    30    1
    33    31    32    1
    34    33    37    2
    35    33    38    1
    36    34    35    1
    37    34    36    1
    38    34    38    1
    39    34    39    1
    40    39    40    1
    41    39    41    1
    42    39    42    1
@<TRIPOS>SUBSTRUCTURE
     1 1           1 GROUP             0 ****  ****    0  
@<TRIPOS>MOLECULE
Molecule Name_00341
    42    42     1     0     0
SMALL
NO_CHARGES
****
Generated from the CSD

@<TRIPOS>ATOM
     1 C1       3.1096  -0.4286  -0.3784   C.ar      1 1      0.0000
     2 C2       2.5315  -0.8550   0.7966   C.ar      1 1      0.0000
     3 C3       1.1796  -0.6337   0.9869   C.ar      1 1      0.0000
     4 C4       0.4068   0.0062   0.0243   C.ar      1 1      0.0000
     5 C5       1.0307   0.4169  -1.1486   C.ar      1 1      0.0000
     6 C6       2.3811   0.2058  -1.3599   C.ar      1 1      0.0000
     7 H7       3.1238  -1.3539   1.5565   H         1 1      0.0000
     8 H8       0.7171  -0.9693   1.9087   H         1 1      0.0000
     9 H9       0.4493   0.9138  -1.9181   H         1 1      0.0000
    10 H10      2.8561   0.5327  -2.2789   H         1 1      0.0000
    11 N11      4.5440  -0.6570  -0.5908   N.pl3     1 1      0.0000
    12 O12      5.2304  -0.9587   0.3730   O.2       1 1      0.0000
    13 O13      4.9875  -0.5353  -1.7221   O.2       1 1      0.0000
    14 CL3     -1.0853   0.2571   0.2464   C.3       1 1      0.0000
    15 CL1     -1.9327  -0.4652  -0.8392   C.3       1 1      0.0000
    16 H16     -2.9002   0.0438  -0.9253   H         1 1      0.0000
    17 H17     -1.4259  -0.3498  -1.8053   H         1 1      0.0000
    18 CL      -2.1906  -1.9650  -0.6108   C.3       1 1      0.0000
    19 CL2     -0.9188  -2.6114  -0.0931   C.3       1 1      0.0000
    20 H20     -0.9970  -3.6961  -0.1247   H         1 1      0.0000
    21 H21     -0.0628  -2.3156  -0.6959   H         1 1      0.0000
    22 H22     -0.7270  -2.3153   0.9362   H         1 1      0.0000
    23 OL2     -1.4167  -0.2136   1.5469   O.3       1 1      0.0000
    24 H24     -2.3217   0.1024   1.7901   H         1 1      0.0000
    25 N25     -3.2305  -2.1524   0.3667   N.3       1 1      0.0000
    26 H26     -2.9138  -1.7090   1.2290   H         1 1      0.0000
    27 C27     -4.5465  -1.5924   0.0544   C.3       1 1      0.0000
    28 H28     -4.8725  -1.9027  -0.9362   H         1 1      0.0000
    29 H29     -5.2891  -1.9270   0.7758   H         1 1      0.0000
    30 H30     -4.5182  -0.5050   0.0767   H         1 1      0.0000
    31 OL1     -2.5048  -2.5850  -1.8521   O.3       1 1      0.0000
    32 H32     -2.6456  -3.5535  -1.7095   H         1 1      0.0000
    33 CL4     -1.2526   1.7884   0.1813   C.2       1 1      0.0000
    34 C34     -0.9750   3.8258   1.3640   C.3       1 1      0.0000
    35 H35     -0.3757   4.2840   0.5676   H         1 1      0.0000
    36 H36     -2.0179   4.1319   1.2150   H         1 1      0.0000
    37 OL3     -1.6840   2.3685  -0.7767   O.2       1 1      0.0000
    38 OL4     -0.8627   2.3730   1.3076   O.3       1 1      0.0000
    39 C39     -0.4940   4.2750   2.6896   C.3       1 1      0.0000
    40 H40      0.5435   3.9850   2.8421   H         1 1      0.0000
    41 H41     -0.5598   5.3575   2.7772   H         1 1      0.0000
    42 H42     -1.0898   3.8338   3.4859   H         1 1      0.0000
@<TRIPOS>BOND
     1     1     2   ar
     2     1     6   ar
     3     1    11    1
     4     2     3   ar
     5     2     7    1
     6     3     4   ar
     7     3     8    1
     8     4     5   ar
     9     4    14    1
    10     5     6   ar
    11     5     9    1
    12     6    10    1
    13    11    12    2
    14    11    13    2
    15    14    15    1
    16    14    23    1
    17    14    33    1
    18    15    16    1
    19    15    17    1
    20    15    18    1
    21    18    19    1
    22    18    25    1
    23    18    31    1
    24    19    20    1
    25    19    21    1
    26    19    22    1
    27    23    24    1
    28    25    26    1
    29    25    27    1
    30    27    28    1
    31    27    29    1
    32    27    30    1
    33    31    32    1
    34    33    37    2
    35    33    38    1
    36    34    35    1
    37    34    36    1
    38    34    38    1
    39    34    39    1
    40    39    40    1
    41    39    41    1
    42    39    42    1
@<TRIPOS>SUBSTRUCTURE
     1 1           1 GROUP             0 ****  ****    0  
@<TRIPOS>MOLECULE
Molecule Name_00342
    42    42     1     0     0
SMALL
NO_CHARGES
****
Generated from the CSD

@<TRIPOS>ATOM
     1 C1       2.8888  -0.3800  -0.4240   C.ar      1 1      0.0000
     2 C2       2.1603   0.4373  -1.2593   C.ar      1 1      0.0000
     3 C3       0.8307   0.6725  -0.9599   C.ar      1 1      0.0000
     4 C4       0.2264   0.1020   0.1549   C.ar      1 1      0.0000
     5 C5       1.0001  -0.7138   0.9729   C.ar      1 1      0.0000
     6 C6       2.3314  -0.9625   0.6925   C.ar      1 1      0.0000
     7 H7       2.6195   0.8872  -2.1334   H         1 1      0.0000
     8 H8       0.2515   1.3173  -1.6118   H         1 1      0.0000
     9 H9       0.5542  -1.1671   1.8520   H         1 1      0.0000
    10 H10      2.9237  -1.6024   1.3381   H         1 1      0.0000
    11 N11      4.3006  -0.6377  -0.7325   N.pl3     1 1      0.0000
    12 O12      4.9331  -1.3645   0.0178   O.2       1 1      0.0000
    13 O13      4.7803  -0.1138  -1.7259   O.2       1 1      0.0000
    14 CL3     -1.2474   0.3579   0.4735   C.3       1 1      0.0000
    15 CL1     -2.1598  -0.2029  -0.6540   C.3       1 1      0.0000
    16 H16     -3.1899   0.1239  -0.4670   H         1 1      0.0000
    17 H17     -1.8508   0.2492  -1.6045   H         1 1      0.0000
    18 CL      -2.1588  -1.7318  -0.8291   C.3       1 1      0.0000
    19 CL2     -0.7846  -2.1741  -1.2972   C.3       1 1      0.0000
    20 H20     -0.8578  -3.0577  -1.9278   H         1 1      0.0000
    21 H21     -0.3010  -1.3868  -1.8717   H         1 1      0.0000
    22 H22     -0.1472  -2.4150  -0.4490   H         1 1      0.0000
    23 OL2     -1.5374  -0.2639   1.7192   O.3       1 1      0.0000
    24 H24     -2.3581   0.1338   2.1019   H         1 1      0.0000
    25 N25     -2.4471  -2.3807   0.4231   N.3       1 1      0.0000
    26 H26     -2.6143  -1.6451   1.1096   H         1 1      0.0000
    27 C27     -3.6070  -3.2730   0.4589   C.3       1 1      0.0000
    28 H28     -3.4907  -4.0857  -0.2551   H         1 1      0.0000
    29 H29     -3.7294  -3.7069   1.4492   H         1 1      0.0000
    30 H30     -4.5178  -2.7319   0.2111   H         1 1      0.0000
    31 OL1     -3.0875  -2.0918  -1.8448   O.3       1 1      0.0000
    32 H32     -2.9904  -3.0537  -2.0531   H         1 1      0.0000
    33 CL4     -1.3730   1.8888   0.6063   C.2       1 1      0.0000
    34 C34     -0.6704   3.7504   1.8977   C.3       1 1      0.0000
    35 H35     -1.4308   4.3157   1.3449   H         1 1      0.0000
    36 H36     -0.7245   4.0582   2.9492   H         1 1      0.0000
    37 OL3     -1.8272   2.5941  -0.2520   O.2       1 1      0.0000
    38 OL4     -0.9197   2.3187   1.7776   O.3       1 1      0.0000
    39 C39      0.6755   4.0323   1.3503   C.3       1 1      0.0000
    40 H40      0.7354   3.7399   0.3041   H         1 1      0.0000
    41 H41      0.9054   5.0934   1.4194   H         1 1      0.0000
    42 H42      1.4379   3.4838   1.8997   H         1 1      0.0000
@<TRIPOS>BOND
     1     1     2   ar
     2     1     6   ar
     3     1    11    1
     4     2     3   ar
     5     2     7    1
     6     3     4   ar
     7     3     8    1
     8     4     5   ar
     9     4    14    1
    10     5     6   ar
    11     5     9    1
    12     6    10    1
    13    11    12    2
    14    11    13    2
    15    14    15    1
    16    14    23    1
    17    14    33    1
    18    15    16    1
    19    15    17    1
    20    15    18    1
    21    18    19    1
    22    18    25    1
    23    18    31    1
    24    19    20    1
    25    19    21    1
    26    19    22    1
    27    23    24    1
    28    25    26    1
    29    25    27    1
    30    27    28    1
    31    27    29    1
    32    27    30    1
    33    31    32    1
    34    33    37    2
    35    33    38    1
    36    34    35    1
    37    34    36    1
    38    34    38    1
    39    34    39    1
    40    39    40    1
    41    39    41    1
    42    39    42    1
@<TRIPOS>SUBSTRUCTURE
     1 1           1 GROUP             0 ****  ****    0  
@<TRIPOS>MOLECULE
Molecule Name_00343
    42    42     1     0     0
SMALL
NO_CHARGES
****
Generated from the CSD

@<TRIPOS>ATOM
     1 C1       3.5472  -0.4539  -0.1210   C.ar      1 1      0.0000
     2 C2       2.6696  -0.2074  -1.1533   C.ar      1 1      0.0000
     3 C3       1.3128  -0.2203  -0.8852   C.ar      1 1      0.0000
     4 C4       0.8284  -0.4774   0.3925   C.ar      1 1      0.0000
     5 C5       1.7499  -0.7175   1.4056   C.ar      1 1      0.0000
     6 C6       3.1110  -0.7093   1.1600   C.ar      1 1      0.0000
     7 H7       3.0346  -0.0072  -2.1553   H         1 1      0.0000
     8 H8       0.6159  -0.0243  -1.6928   H         1 1      0.0000
     9 H9       1.3985  -0.9155   2.4127   H         1 1      0.0000
    10 H10      3.8196  -0.8999   1.9592   H         1 1      0.0000
    11 N11      4.9894  -0.4439  -0.3940   N.pl3     1 1      0.0000
    12 O12      5.7547  -0.6643   0.5317   O.2       1 1      0.0000
    13 O13      5.3604  -0.2157  -1.5349   O.2       1 1      0.0000
    14 CL3     -0.6737  -0.5007   0.6791   C.3       1 1      0.0000
    15 CL1     -1.4556  -1.0889  -0.5296   C.3       1 1      0.0000
    16 H16     -1.1642  -0.5433  -1.4352   H         1 1      0.0000
    17 H17     -1.1400  -2.1300  -0.6707   H         1 1      0.0000
    18 CL      -2.9905  -1.0654  -0.4202   C.3       1 1      0.0000
    19 CL2     -3.3845  -1.2493   1.0339   C.3       1 1      0.0000
    20 H20     -4.4657  -1.3174   1.1348   H         1 1      0.0000
    21 H21     -2.9483  -2.1598   1.4395   H         1 1      0.0000
    22 H22     -3.0400  -0.4111   1.6358   H         1 1      0.0000
    23 OL2     -0.8814  -1.2828   1.8485   O.3       1 1      0.0000
    24 H24     -1.2812  -0.7180   2.5550   H         1 1      0.0000
    25 N25     -3.5071   0.1975  -0.8787   N.3       1 1      0.0000
    26 H26     -3.1402   0.9153  -0.2537   H         1 1      0.0000
    27 C27     -3.1646   0.6008  -2.2436   C.3       1 1      0.0000
    28 H28     -3.2570  -0.2393  -2.9287   H         1 1      0.0000
    29 H29     -3.8250   1.3937  -2.5886   H         1 1      0.0000
    30 H30     -2.1412   0.9669  -2.2923   H         1 1      0.0000
    31 OL1     -3.5330  -2.1614  -1.1471   O.3       1 1      0.0000
    32 H32     -4.5178  -2.1611  -1.0557   H         1 1      0.0000
    33 CL4     -1.0568   0.9676   0.9517   C.2       1 1      0.0000
    34 C34     -1.2675   3.1275  -0.0059   C.3       1 1      0.0000
    35 H35     -0.8295   3.4927   0.9313   H         1 1      0.0000
    36 H36     -0.8023   3.6822  -0.8301   H         1 1      0.0000
    37 OL3     -1.3513   1.3857   2.0375   O.2       1 1      0.0000
    38 OL4     -1.0188   1.6985  -0.1557   O.3       1 1      0.0000
    39 C39     -2.7316   3.3439  -0.0052   C.3       1 1      0.0000
    40 H40     -3.2095   2.7459   0.7680   H         1 1      0.0000
    41 H41     -2.9668   4.3897   0.1813   H         1 1      0.0000
    42 H42     -3.1631   3.0652  -0.9643   H         1 1      0.0000
@<TRIPOS>BOND
     1     1     2   ar
     2     1     6   ar
     3     1    11    1
     4     2     3   ar
     5     2     7    1
     6     3     4   ar
     7     3     8    1
     8     4     5   ar
     9     4    14    1
    10     5     6   ar
    11     5     9    1
    12     6    10    1
    13    11    12    2
    14    11    13    2
    15    14    15    1
    16    14    23    1
    17    14    33    1
    18    15    16    1
    19    15    17    1
    20    15    18    1
    21    18    19    1
    22    18    25    1
    23    18    31    1
    24    19    20    1
    25    19    21    1
    26    19    22    1
    27    23    24    1
    28    25    26    1
    29    25    27    1
    30    27    28    1
    31    27    29    1
    32    27    30    1
    33    31    32    1
    34    33    37    2
    35    33    38    1
    36    34    35    1
    37    34    36    1
    38    34    38    1
    39    34    39    1
    40    39    40    1
    41    39    41    1
    42    39    42    1
@<TRIPOS>SUBSTRUCTURE
     1 1           1 GROUP             0 ****  ****    0  
@<TRIPOS>MOLECULE
Molecule Name_00344
    42    42     1     0     0
SMALL
NO_CHARGES
****
Generated from the CSD

@<TRIPOS>ATOM
     1 C1       3.4528  -0.3153  -0.1470   C.ar      1 1      0.0000
     2 C2       2.5559  -0.1533  -1.1795   C.ar      1 1      0.0000
     3 C3       1.2036  -0.2246  -0.8981   C.ar      1 1      0.0000
     4 C4       0.7426  -0.4567   0.3930   C.ar      1 1      0.0000
     5 C5       1.6829  -0.6108   1.4056   C.ar      1 1      0.0000
     6 C6       3.0399  -0.5432   1.1469   C.ar      1 1      0.0000
     7 H7       2.9027   0.0265  -2.1917   H         1 1      0.0000
     8 H8       0.4915  -0.0953  -1.7059   H         1 1      0.0000
     9 H9       1.3497  -0.7877   2.4228   H         1 1      0.0000
    10 H10      3.7634  -0.6669   1.9460   H         1 1      0.0000
    11 N11      4.8905  -0.2428  -0.4339   N.pl3     1 1      0.0000
    12 O12      5.6730  -0.3884   0.4922   O.2       1 1      0.0000
    13 O13      5.2406  -0.0400  -1.5861   O.2       1 1      0.0000
    14 CL3     -0.7541  -0.5451   0.6945   C.3       1 1      0.0000
    15 CL1     -1.5133  -1.2240  -0.4807   C.3       1 1      0.0000
    16 H16     -1.2442  -0.7140  -1.4135   H         1 1      0.0000
    17 H17     -1.1571  -2.2577  -0.5698   H         1 1      0.0000
    18 CL      -3.0477  -1.2551  -0.3684   C.3       1 1      0.0000
    19 CL2     -3.4331  -1.3863   1.0938   C.3       1 1      0.0000
    20 H20     -4.5106  -1.4919   1.2006   H         1 1      0.0000
    21 H21     -2.9610  -2.2590   1.5402   H         1 1      0.0000
    22 H22     -3.1213  -0.5080   1.6551   H         1 1      0.0000
    23 OL2     -0.9123  -1.2862   1.8980   O.3       1 1      0.0000
    24 H24     -1.3713  -0.7256   2.5712   H         1 1      0.0000
    25 N25     -3.6135  -0.0359  -0.8836   N.3       1 1      0.0000
    26 H26     -3.2776   0.7235  -0.2913   H         1 1      0.0000
    27 C27     -3.2839   0.3192  -2.2650   C.3       1 1      0.0000
    28 H28     -3.3431  -0.5534  -2.9122   H         1 1      0.0000
    29 H29     -3.9731   1.0704  -2.6451   H         1 1      0.0000
    30 H30     -2.2750   0.7213  -2.3297   H         1 1      0.0000
    31 OL1     -3.5478  -2.4039  -1.0420   O.3       1 1      0.0000
    32 H32     -4.5317  -2.4377  -0.9482   H         1 1      0.0000
    33 CL4     -1.2108   0.9119   0.9084   C.2       1 1      0.0000
    34 C34     -1.6480   2.9873  -0.1536   C.3       1 1      0.0000
    35 H35     -2.0447   3.3192  -1.1210   H         1 1      0.0000
    36 H36     -2.4444   3.1043   0.5916   H         1 1      0.0000
    37 OL3     -1.5089   1.3631   1.9798   O.2       1 1      0.0000
    38 OL4     -1.2307   1.5923  -0.2313   O.3       1 1      0.0000
    39 C39     -0.4707   3.8012   0.2232   C.3       1 1      0.0000
    40 H40      0.3210   3.6998  -0.5162   H         1 1      0.0000
    41 H41     -0.7361   4.8540   0.2934   H         1 1      0.0000
    42 H42     -0.0765   3.4861   1.1871   H         1 1      0.0000
@<TRIPOS>BOND
     1     1     2   ar
     2     1     6   ar
     3     1    11    1
     4     2     3   ar
     5     2     7    1
     6     3     4   ar
     7     3     8    1
     8     4     5   ar
     9     4    14    1
    10     5     6   ar
    11     5     9    1
    12     6    10    1
    13    11    12    2
    14    11    13    2
    15    14    15    1
    16    14    23    1
    17    14    33    1
    18    15    16    1
    19    15    17    1
    20    15    18    1
    21    18    19    1
    22    18    25    1
    23    18    31    1
    24    19    20    1
    25    19    21    1
    26    19    22    1
    27    23    24    1
    28    25    26    1
    29    25    27    1
    30    27    28    1
    31    27    29    1
    32    27    30    1
    33    31    32    1
    34    33    37    2
    35    33    38    1
    36    34    35    1
    37    34    36    1
    38    34    38    1
    39    34    39    1
    40    39    40    1
    41    39    41    1
    42    39    42    1
@<TRIPOS>SUBSTRUCTURE
     1 1           1 GROUP             0 ****  ****    0  
@<TRIPOS>MOLECULE
Molecule Name_00345
    42    42     1     0     0
SMALL
NO_CHARGES
****
Generated from the CSD

@<TRIPOS>ATOM
     1 C1       3.4762  -0.3991  -0.0860   C.ar      1 1      0.0000
     2 C2       2.8412   0.7669  -0.4516   C.ar      1 1      0.0000
     3 C3       1.4785   0.8723  -0.2398   C.ar      1 1      0.0000
     4 C4       0.7499  -0.1678   0.3263   C.ar      1 1      0.0000
     5 C5       1.4318  -1.3257   0.6837   C.ar      1 1      0.0000
     6 C6       2.7941  -1.4526   0.4812   C.ar      1 1      0.0000
     7 H7       3.3979   1.5853  -0.8960   H         1 1      0.0000
     8 H8       0.9722   1.7888  -0.5228   H         1 1      0.0000
     9 H9       0.8878  -2.1502   1.1322   H         1 1      0.0000
    10 H10      3.3141  -2.3622   0.7630   H         1 1      0.0000
    11 N11      4.9221  -0.5227  -0.3071   N.pl3     1 1      0.0000
    12 O12      5.4705  -1.5629   0.0224   O.2       1 1      0.0000
    13 O13      5.5126   0.4200  -0.8107   O.2       1 1      0.0000
    14 CL3     -0.7587  -0.0481   0.5474   C.3       1 1      0.0000
    15 CL1     -1.5052  -1.2578  -0.0833   C.3       1 1      0.0000
    16 H16     -1.2438  -1.3158  -1.1468   H         1 1      0.0000
    17 H17     -1.1317  -2.1763   0.3862   H         1 1      0.0000
    18 CL      -3.0390  -1.2473   0.0407   C.3       1 1      0.0000
    19 CL2     -3.6233  -0.4727  -1.1264   C.3       1 1      0.0000
    20 H20     -4.6804  -0.6991  -1.2490   H         1 1      0.0000
    21 H21     -3.5224   0.5989  -0.9673   H         1 1      0.0000
    22 H22     -3.1124  -0.7274  -2.0527   H         1 1      0.0000
    23 OL2     -0.9891   0.0171   1.9492   O.3       1 1      0.0000
    24 H24     -1.9565   0.1338   2.1182   H         1 1      0.0000
    25 N25     -3.5549  -2.5905   0.0033   N.3       1 1      0.0000
    26 H26     -4.5680  -2.5247   0.1024   H         1 1      0.0000
    27 C27     -3.2919  -3.3712  -1.2069   C.3       1 1      0.0000
    28 H28     -2.2218  -3.4792  -1.3711   H         1 1      0.0000
    29 H29     -3.7244  -4.3662  -1.1256   H         1 1      0.0000
    30 H30     -3.7215  -2.8852  -2.0803   H         1 1      0.0000
    31 OL1     -3.4123  -0.5635   1.2311   O.3       1 1      0.0000
    32 H32     -4.3986  -0.5344   1.2979   H         1 1      0.0000
    33 CL4     -1.1607   1.2845  -0.1157   C.2       1 1      0.0000
    34 C34     -1.8090   3.5323   0.2759   C.3       1 1      0.0000
    35 H35     -2.4332   3.4190  -0.6190   H         1 1      0.0000
    36 H36     -2.3980   4.0721   1.0276   H         1 1      0.0000
    37 OL3     -1.2297   1.4399  -1.3038   O.2       1 1      0.0000
    38 OL4     -1.4169   2.2239   0.7865   O.3       1 1      0.0000
    39 C39     -0.5791   4.2883  -0.0503   C.3       1 1      0.0000
    40 H40      0.0067   3.7655  -0.8034   H         1 1      0.0000
    41 H41     -0.8242   5.2754  -0.4366   H         1 1      0.0000
    42 H42      0.0417   4.4150   0.8342   H         1 1      0.0000
@<TRIPOS>BOND
     1     1     2   ar
     2     1     6   ar
     3     1    11    1
     4     2     3   ar
     5     2     7    1
     6     3     4   ar
     7     3     8    1
     8     4     5   ar
     9     4    14    1
    10     5     6   ar
    11     5     9    1
    12     6    10    1
    13    11    12    2
    14    11    13    2
    15    14    15    1
    16    14    23    1
    17    14    33    1
    18    15    16    1
    19    15    17    1
    20    15    18    1
    21    18    19    1
    22    18    25    1
    23    18    31    1
    24    19    20    1
    25    19    21    1
    26    19    22    1
    27    23    24    1
    28    25    26    1
    29    25    27    1
    30    27    28    1
    31    27    29    1
    32    27    30    1
    33    31    32    1
    34    33    37    2
    35    33    38    1
    36    34    35    1
    37    34    36    1
    38    34    38    1
    39    34    39    1
    40    39    40    1
    41    39    41    1
    42    39    42    1
@<TRIPOS>SUBSTRUCTURE
     1 1           1 GROUP             0 ****  ****    0  
@<TRIPOS>MOLECULE
Molecule Name_00346
    42    42     1     0     0
SMALL
NO_CHARGES
****
Generated from the CSD

@<TRIPOS>ATOM
     1 C1       3.4718  -0.3958  -0.1145   C.ar      1 1      0.0000
     2 C2       2.8556   0.8089  -0.3706   C.ar      1 1      0.0000
     3 C3       1.4868   0.9019  -0.1956   C.ar      1 1      0.0000
     4 C4       0.7338  -0.1880   0.2268   C.ar      1 1      0.0000
     5 C5       1.3974  -1.3840   0.4773   C.ar      1 1      0.0000
     6 C6       2.7653  -1.4995   0.3089   C.ar      1 1      0.0000
     7 H7       3.4315   1.6665  -0.7025   H         1 1      0.0000
     8 H8       0.9952   1.8483  -0.3928   H         1 1      0.0000
     9 H9       0.8340  -2.2483   0.8129   H         1 1      0.0000
    10 H10      3.2707  -2.4390   0.5063   H         1 1      0.0000
    11 N11      4.9240  -0.5067  -0.2980   N.pl3     1 1      0.0000
    12 O12      5.4556  -1.5815  -0.0668   O.2       1 1      0.0000
    13 O13      5.5363   0.4808  -0.6737   O.2       1 1      0.0000
    14 CL3     -0.7810  -0.0805   0.4077   C.3       1 1      0.0000
    15 CL1     -1.5105  -1.2068  -0.3781   C.3       1 1      0.0000
    16 H16     -1.2125  -1.1492  -1.4319   H         1 1      0.0000
    17 H17     -1.1578  -2.1746  -0.0007   H         1 1      0.0000
    18 CL      -3.0477  -1.1971  -0.3061   C.3       1 1      0.0000
    19 CL2     -3.5872  -0.2902  -1.3969   C.3       1 1      0.0000
    20 H20     -4.6429  -0.4853  -1.5736   H         1 1      0.0000
    21 H21     -3.4778   0.7557  -1.1180   H         1 1      0.0000
    22 H22     -3.0522  -0.4497  -2.3308   H         1 1      0.0000
    23 OL2     -1.0602  -0.1682   1.7994   O.3       1 1      0.0000
    24 H24     -2.0324  -0.0626   1.9469   H         1 1      0.0000
    25 N25     -3.5683  -2.5230  -0.5136   N.3       1 1      0.0000
    26 H26     -3.2449  -2.8313  -1.4305   H         1 1      0.0000
    27 C27     -3.1723  -3.5519   0.4495   C.3       1 1      0.0000
    28 H28     -3.1981  -3.1607   1.4644   H         1 1      0.0000
    29 H29     -3.8435  -4.4067   0.3986   H         1 1      0.0000
    30 H30     -2.1622  -3.9017   0.2467   H         1 1      0.0000
    31 OL1     -3.4591  -0.6495   0.9407   O.3       1 1      0.0000
    32 H32     -4.4469  -0.6197   0.9767   H         1 1      0.0000
    33 CL4     -1.1531   1.3205  -0.1176   C.2       1 1      0.0000
    34 C34     -1.8042   3.5169   0.4974   C.3       1 1      0.0000
    35 H35     -2.3971   3.5083  -0.4255   H         1 1      0.0000
    36 H36     -2.4167   3.9755   1.2834   H         1 1      0.0000
    37 OL3     -1.1796   1.6066  -1.2828   O.2       1 1      0.0000
    38 OL4     -1.4364   2.1569   0.8735   O.3       1 1      0.0000
    39 C39     -0.5600   4.2937   0.2994   C.3       1 1      0.0000
    40 H40      0.0494   3.8521  -0.4863   H         1 1      0.0000
    41 H41     -0.7868   5.3195   0.0163   H         1 1      0.0000
    42 H42      0.0299   4.3168   1.2133   H         1 1      0.0000
@<TRIPOS>BOND
     1     1     2   ar
     2     1     6   ar
     3     1    11    1
     4     2     3   ar
     5     2     7    1
     6     3     4   ar
     7     3     8    1
     8     4     5   ar
     9     4    14    1
    10     5     6   ar
    11     5     9    1
    12     6    10    1
    13    11    12    2
    14    11    13    2
    15    14    15    1
    16    14    23    1
    17    14    33    1
    18    15    16    1
    19    15    17    1
    20    15    18    1
    21    18    19    1
    22    18    25    1
    23    18    31    1
    24    19    20    1
    25    19    21    1
    26    19    22    1
    27    23    24    1
    28    25    26    1
    29    25    27    1
    30    27    28    1
    31    27    29    1
    32    27    30    1
    33    31    32    1
    34    33    37    2
    35    33    38    1
    36    34    35    1
    37    34    36    1
    38    34    38    1
    39    34    39    1
    40    39    40    1
    41    39    41    1
    42    39    42    1
@<TRIPOS>SUBSTRUCTURE
     1 1           1 GROUP             0 ****  ****    0  
@<TRIPOS>MOLECULE
Molecule Name_00347
    42    42     1     0     0
SMALL
NO_CHARGES
****
Generated from the CSD

@<TRIPOS>ATOM
     1 C1       3.5729  -0.5334  -0.0905   C.ar      1 1      0.0000
     2 C2       3.0197   0.7048  -0.3302   C.ar      1 1      0.0000
     3 C3       1.6559   0.8634  -0.1632   C.ar      1 1      0.0000
     4 C4       0.8461  -0.1943   0.2352   C.ar      1 1      0.0000
     5 C5       1.4470  -1.4261   0.4698   C.ar      1 1      0.0000
     6 C6       2.8087  -1.6071   0.3091   C.ar      1 1      0.0000
     7 H7       3.6403   1.5379  -0.6433   H         1 1      0.0000
     8 H8       1.2138   1.8364  -0.3476   H         1 1      0.0000
     9 H9       0.8385  -2.2665   0.7867   H         1 1      0.0000
    10 H10      3.2649  -2.5740   0.4938   H         1 1      0.0000
    11 N11      5.0191  -0.7138  -0.2657   N.pl3     1 1      0.0000
    12 O12      5.4944  -1.8176  -0.0492   O.2       1 1      0.0000
    13 O13      5.6829   0.2479  -0.6202   O.2       1 1      0.0000
    14 CL3     -0.6628  -0.0140   0.4073   C.3       1 1      0.0000
    15 CL1     -1.4416  -1.0891  -0.4027   C.3       1 1      0.0000
    16 H16     -1.1328  -1.0288  -1.4533   H         1 1      0.0000
    17 H17     -1.1407  -2.0795  -0.0395   H         1 1      0.0000
    18 CL      -2.9769  -1.0035  -0.3413   C.3       1 1      0.0000
    19 CL2     -3.4618  -0.0526  -1.4202   C.3       1 1      0.0000
    20 H20     -4.5245  -0.1915  -1.6075   H         1 1      0.0000
    21 H21     -3.3025   0.9818  -1.1227   H         1 1      0.0000
    22 H22     -2.9281  -0.2230  -2.3529   H         1 1      0.0000
    23 OL2     -0.9569  -0.1110   1.7953   O.3       1 1      0.0000
    24 H24     -1.9238   0.0408   1.9378   H         1 1      0.0000
    25 N25     -3.5615  -2.2980  -0.5750   N.3       1 1      0.0000
    26 H26     -3.2467  -2.6066  -1.4948   H         1 1      0.0000
    27 C27     -3.2250  -3.3614   0.3730   C.3       1 1      0.0000
    28 H28     -3.2392  -2.9864   1.3943   H         1 1      0.0000
    29 H29     -3.9377  -4.1805   0.3028   H         1 1      0.0000
    30 H30     -2.2321  -3.7580   0.1714   H         1 1      0.0000
    31 OL1     -3.3701  -0.4569   0.9118   O.3       1 1      0.0000
    32 H32     -4.3555  -0.3782   0.9414   H         1 1      0.0000
    33 CL4     -0.9603   1.4124  -0.0965   C.2       1 1      0.0000
    34 C34     -1.5055   3.6281   0.5515   C.3       1 1      0.0000
    35 H35     -1.2664   4.2948   1.3892   H         1 1      0.0000
    36 H36     -0.8963   3.9385  -0.3064   H         1 1      0.0000
    37 OL3     -0.9633   1.7190  -1.2568   O.2       1 1      0.0000
    38 OL4     -1.2092   2.2453   0.9068   O.3       1 1      0.0000
    39 C39     -2.9445   3.7211   0.2178   C.3       1 1      0.0000
    40 H40     -3.5571   3.4253   1.0669   H         1 1      0.0000
    41 H41     -3.2122   4.7398  -0.0547   H         1 1      0.0000
    42 H42     -3.1890   3.0708  -0.6195   H         1 1      0.0000
@<TRIPOS>BOND
     1     1     2   ar
     2     1     6   ar
     3     1    11    1
     4     2     3   ar
     5     2     7    1
     6     3     4   ar
     7     3     8    1
     8     4     5   ar
     9     4    14    1
    10     5     6   ar
    11     5     9    1
    12     6    10    1
    13    11    12    2
    14    11    13    2
    15    14    15    1
    16    14    23    1
    17    14    33    1
    18    15    16    1
    19    15    17    1
    20    15    18    1
    21    18    19    1
    22    18    25    1
    23    18    31    1
    24    19    20    1
    25    19    21    1
    26    19    22    1
    27    23    24    1
    28    25    26    1
    29    25    27    1
    30    27    28    1
    31    27    29    1
    32    27    30    1
    33    31    32    1
    34    33    37    2
    35    33    38    1
    36    34    35    1
    37    34    36    1
    38    34    38    1
    39    34    39    1
    40    39    40    1
    41    39    41    1
    42    39    42    1
@<TRIPOS>SUBSTRUCTURE
     1 1           1 GROUP             0 ****  ****    0  
@<TRIPOS>MOLECULE
Molecule Name_00348
    42    42     1     0     0
SMALL
NO_CHARGES
****
Generated from the CSD

@<TRIPOS>ATOM
     1 C1       2.7675  -0.6351  -0.2145   C.ar      1 1      0.0000
     2 C2       1.9271  -0.0317  -1.1234   C.ar      1 1      0.0000
     3 C3       0.6317   0.2583  -0.7351   C.ar      1 1      0.0000
     4 C4       0.1709  -0.0483   0.5404   C.ar      1 1      0.0000
     5 C5       1.0543  -0.6540   1.4271   C.ar      1 1      0.0000
     6 C6       2.3539  -0.9527   1.0601   C.ar      1 1      0.0000
     7 H7       2.2737   0.2112  -2.1225   H         1 1      0.0000
     8 H8      -0.0349   0.7360  -1.4449   H         1 1      0.0000
     9 H9       0.7216  -0.8989   2.4303   H         1 1      0.0000
    10 H10      3.0327  -1.4270   1.7612   H         1 1      0.0000
    11 N11      4.1442  -0.9486  -0.6158   N.pl3     1 1      0.0000
    12 O12      4.8771  -1.4836   0.2014   O.2       1 1      0.0000
    13 O13      4.4959  -0.6606  -1.7492   O.2       1 1      0.0000
    14 CL3     -1.2662   0.2655   0.9590   C.3       1 1      0.0000
    15 CL1     -2.2525  -0.0065  -0.2122   C.3       1 1      0.0000
    16 H16     -3.2589   0.2993   0.0984   H         1 1      0.0000
    17 H17     -1.9715   0.6360  -1.0558   H         1 1      0.0000
    18 CL      -2.3197  -1.4581  -0.7185   C.3       1 1      0.0000
    19 CL2     -3.7613  -1.7998  -1.0479   C.3       1 1      0.0000
    20 H20     -3.8439  -2.8263  -1.3988   H         1 1      0.0000
    21 H21     -4.3940  -1.6900  -0.1696   H         1 1      0.0000
    22 H22     -4.1451  -1.1436  -1.8262   H         1 1      0.0000
    23 OL2     -1.5780  -0.5450   2.0852   O.3       1 1      0.0000
    24 H24     -2.4913  -0.3329   2.4000   H         1 1      0.0000
    25 N25     -1.5287  -1.6108  -1.9114   N.3       1 1      0.0000
    26 H26     -1.1399  -0.6939  -2.1318   H         1 1      0.0000
    27 C27     -0.4070  -2.5495  -1.8508   C.3       1 1      0.0000
    28 H28     -0.7621  -3.5648  -1.6878   H         1 1      0.0000
    29 H29      0.1598  -2.5336  -2.7794   H         1 1      0.0000
    30 H30      0.2680  -2.2918  -1.0374   H         1 1      0.0000
    31 OL1     -1.9023  -2.3397   0.3170   O.3       1 1      0.0000
    32 H32     -2.1080  -3.2718   0.0580   H         1 1      0.0000
    33 CL4     -1.2538   1.7524   1.3664   C.2       1 1      0.0000
    34 C34     -0.8897   3.9714   0.6114   C.3       1 1      0.0000
    35 H35     -1.8678   4.3226   0.9628   H         1 1      0.0000
    36 H36     -0.1551   4.1892   1.3965   H         1 1      0.0000
    37 OL3     -1.5044   2.1386   2.4747   O.2       1 1      0.0000
    38 OL4     -0.9340   2.5383   0.3455   O.3       1 1      0.0000
    39 C39     -0.5180   4.6626  -0.6434   C.3       1 1      0.0000
    40 H40     -1.2471   4.4610  -1.4253   H         1 1      0.0000
    41 H41     -0.4726   5.7391  -0.4918   H         1 1      0.0000
    42 H42      0.4562   4.3283  -0.9939   H         1 1      0.0000
@<TRIPOS>BOND
     1     1     2   ar
     2     1     6   ar
     3     1    11    1
     4     2     3   ar
     5     2     7    1
     6     3     4   ar
     7     3     8    1
     8     4     5   ar
     9     4    14    1
    10     5     6   ar
    11     5     9    1
    12     6    10    1
    13    11    12    2
    14    11    13    2
    15    14    15    1
    16    14    23    1
    17    14    33    1
    18    15    16    1
    19    15    17    1
    20    15    18    1
    21    18    19    1
    22    18    25    1
    23    18    31    1
    24    19    20    1
    25    19    21    1
    26    19    22    1
    27    23    24    1
    28    25    26    1
    29    25    27    1
    30    27    28    1
    31    27    29    1
    32    27    30    1
    33    31    32    1
    34    33    37    2
    35    33    38    1
    36    34    35    1
    37    34    36    1
    38    34    38    1
    39    34    39    1
    40    39    40    1
    41    39    41    1
    42    39    42    1
@<TRIPOS>SUBSTRUCTURE
     1 1           1 GROUP             0 ****  ****    0  
@<TRIPOS>MOLECULE
Molecule Name_00349
    42    42     1     0     0
SMALL
NO_CHARGES
****
Generated from the CSD

@<TRIPOS>ATOM
     1 C1       3.6763  -0.3725  -0.1426   C.ar      1 1      0.0000
     2 C2       3.1439  -1.2905   0.7353   C.ar      1 1      0.0000
     3 C3       1.7724  -1.3186   0.9116   C.ar      1 1      0.0000
     4 C4       0.9351  -0.4445   0.2274   C.ar      1 1      0.0000
     5 C5       1.5148   0.4635  -0.6517   C.ar      1 1      0.0000
     6 C6       2.8837   0.5090  -0.8435   C.ar      1 1      0.0000
     7 H7       3.7865  -1.9768   1.2767   H         1 1      0.0000
     8 H8       1.3460  -2.0407   1.5993   H         1 1      0.0000
     9 H9       0.8834   1.1531  -1.2020   H         1 1      0.0000
    10 H10      3.3237   1.2236  -1.5313   H         1 1      0.0000
    11 N11      5.1307  -0.3327  -0.3369   N.pl3     1 1      0.0000
    12 O12      5.5874   0.4868  -1.1186   O.2       1 1      0.0000
    13 O13      5.8198  -1.1209   0.2917   O.2       1 1      0.0000
    14 CL3     -0.5797  -0.4743   0.4358   C.3       1 1      0.0000
    15 CL1     -1.3085  -0.8739  -0.8786   C.3       1 1      0.0000
    16 H16     -0.9316  -0.2448  -1.6940   H         1 1      0.0000
    17 H17     -1.0359  -1.9079  -1.1232   H         1 1      0.0000
    18 CL      -2.8441  -0.7762  -0.8587   C.3       1 1      0.0000
    19 CL2     -3.4137  -1.7472  -1.8767   C.3       1 1      0.0000
    20 H20     -4.1023  -1.2406  -2.5497   H         1 1      0.0000
    21 H21     -2.6193  -2.1894  -2.4743   H         1 1      0.0000
    22 H22     -3.9536  -2.5519  -1.3820   H         1 1      0.0000
    23 OL2     -0.8577  -1.4048   1.4747   O.3       1 1      0.0000
    24 H24     -1.1517  -2.2619   1.0783   H         1 1      0.0000
    25 N25     -3.3525  -1.1253   0.4419   N.3       1 1      0.0000
    26 H26     -2.9704  -0.4497   1.1036   H         1 1      0.0000
    27 C27     -4.8065  -1.1179   0.6123   C.3       1 1      0.0000
    28 H28     -5.2020  -2.1313   0.5948   H         1 1      0.0000
    29 H29     -5.0812  -0.6631   1.5617   H         1 1      0.0000
    30 H30     -5.2854  -0.5534  -0.1850   H         1 1      0.0000
    31 OL1     -3.2397   0.5317  -1.2548   O.3       1 1      0.0000
    32 H32     -4.2097   0.5375  -1.4474   H         1 1      0.0000
    33 CL4     -0.9540   0.9507   0.8901   C.2       1 1      0.0000
    34 C34     -1.5680   3.1237   0.1638   C.3       1 1      0.0000
    35 H35     -1.0025   3.4818   1.0329   H         1 1      0.0000
    36 H36     -1.3278   3.7781  -0.6833   H         1 1      0.0000
    37 OL3     -1.0103   1.2868   2.0409   O.2       1 1      0.0000
    38 OL4     -1.2023   1.7460  -0.1434   O.3       1 1      0.0000
    39 C39     -3.0203   3.1641   0.4460   C.3       1 1      0.0000
    40 H40     -3.2666   2.5259   1.2921   H         1 1      0.0000
    41 H41     -3.3395   4.1772   0.6814   H         1 1      0.0000
    42 H42     -3.5902   2.8206  -0.4148   H         1 1      0.0000
@<TRIPOS>BOND
     1     1     2   ar
     2     1     6   ar
     3     1    11    1
     4     2     3   ar
     5     2     7    1
     6     3     4   ar
     7     3     8    1
     8     4     5   ar
     9     4    14    1
    10     5     6   ar
    11     5     9    1
    12     6    10    1
    13    11    12    2
    14    11    13    2
    15    14    15    1
    16    14    23    1
    17    14    33    1
    18    15    16    1
    19    15    17    1
    20    15    18    1
    21    18    19    1
    22    18    25    1
    23    18    31    1
    24    19    20    1
    25    19    21    1
    26    19    22    1
    27    23    24    1
    28    25    26    1
    29    25    27    1
    30    27    28    1
    31    27    29    1
    32    27    30    1
    33    31    32    1
    34    33    37    2
    35    33    38    1
    36    34    35    1
    37    34    36    1
    38    34    38    1
    39    34    39    1
    40    39    40    1
    41    39    41    1
    42    39    42    1
@<TRIPOS>SUBSTRUCTURE
     1 1           1 GROUP             0 ****  ****    0  
@<TRIPOS>MOLECULE
Molecule Name_00350
    42    42     1     0     0
SMALL
NO_CHARGES
****
Generated from the CSD

@<TRIPOS>ATOM
     1 C1       3.5683  -0.2290  -0.1639   C.ar      1 1      0.0000
     2 C2       3.0901  -1.1721   0.7184   C.ar      1 1      0.0000
     3 C3       1.7231  -1.2702   0.9049   C.ar      1 1      0.0000
     4 C4       0.8372  -0.4408   0.2263   C.ar      1 1      0.0000
     5 C5       1.3632   0.4947  -0.6577   C.ar      1 1      0.0000
     6 C6       2.7266   0.6101  -0.8596   C.ar      1 1      0.0000
     7 H7       3.7709  -1.8242   1.2556   H         1 1      0.0000
     8 H8       1.3392  -2.0125   1.5961   H         1 1      0.0000
     9 H9       0.6934   1.1505  -1.2038   H         1 1      0.0000
    10 H10      3.1243   1.3456  -1.5510   H         1 1      0.0000
    11 N11      5.0174  -0.1150  -0.3689   N.pl3     1 1      0.0000
    12 O12      5.4257   0.7260  -1.1545   O.2       1 1      0.0000
    13 O13      5.7505  -0.8663   0.2551   O.2       1 1      0.0000
    14 CL3     -0.6725  -0.5479   0.4458   C.3       1 1      0.0000
    15 CL1     -1.3895  -0.9856  -0.8629   C.3       1 1      0.0000
    16 H16     -1.0512  -0.3388  -1.6815   H         1 1      0.0000
    17 H17     -1.0661  -2.0046  -1.1089   H         1 1      0.0000
    18 CL      -2.9279  -0.9666  -0.8319   C.3       1 1      0.0000
    19 CL2     -3.4545  -1.9665  -1.8450   C.3       1 1      0.0000
    20 H20     -4.1722  -1.4962  -2.5139   H         1 1      0.0000
    21 H21     -2.6428  -2.3688  -2.4476   H         1 1      0.0000
    22 H22     -3.9498  -2.7967  -1.3460   H         1 1      0.0000
    23 OL2     -0.8949  -1.4904   1.4873   O.3       1 1      0.0000
    24 H24     -1.1401  -2.3638   1.0933   H         1 1      0.0000
    25 N25     -3.4083  -1.3400   0.4726   N.3       1 1      0.0000
    26 H26     -3.0564  -0.6451   1.1311   H         1 1      0.0000
    27 C27     -4.8595  -1.4068   0.6537   C.3       1 1      0.0000
    28 H28     -5.2024  -2.4393   0.6420   H         1 1      0.0000
    29 H29     -5.1504  -0.9638   1.6038   H         1 1      0.0000
    30 H30     -5.3725  -0.8703  -0.1417   H         1 1      0.0000
    31 OL1     -3.3928   0.3189  -1.2258   O.3       1 1      0.0000
    32 H32     -4.3642   0.2760  -1.4066   H         1 1      0.0000
    33 CL4     -1.1160   0.8565   0.9020   C.2       1 1      0.0000
    34 C34     -1.8456   2.9946   0.1788   C.3       1 1      0.0000
    35 H35     -2.4592   3.3924  -0.6389   H         1 1      0.0000
    36 H36     -2.4584   2.9994   1.0888   H         1 1      0.0000
    37 OL3     -1.1810   1.1904   2.0529   O.2       1 1      0.0000
    38 OL4     -1.4121   1.6370  -0.1302   O.3       1 1      0.0000
    39 C39     -0.6404   3.8323   0.3689   C.3       1 1      0.0000
    40 H40     -0.0315   3.8421  -0.5328   H         1 1      0.0000
    41 H41     -0.9168   4.8583   0.6024   H         1 1      0.0000
    42 H42     -0.0307   3.4513   1.1855   H         1 1      0.0000
@<TRIPOS>BOND
     1     1     2   ar
     2     1     6   ar
     3     1    11    1
     4     2     3   ar
     5     2     7    1
     6     3     4   ar
     7     3     8    1
     8     4     5   ar
     9     4    14    1
    10     5     6   ar
    11     5     9    1
    12     6    10    1
    13    11    12    2
    14    11    13    2
    15    14    15    1
    16    14    23    1
    17    14    33    1
    18    15    16    1
    19    15    17    1
    20    15    18    1
    21    18    19    1
    22    18    25    1
    23    18    31    1
    24    19    20    1
    25    19    21    1
    26    19    22    1
    27    23    24    1
    28    25    26    1
    29    25    27    1
    30    27    28    1
    31    27    29    1
    32    27    30    1
    33    31    32    1
    34    33    37    2
    35    33    38    1
    36    34    35    1
    37    34    36    1
    38    34    38    1
    39    34    39    1
    40    39    40    1
    41    39    41    1
    42    39    42    1
@<TRIPOS>SUBSTRUCTURE
     1 1           1 GROUP             0 ****  ****    0  
@<TRIPOS>MOLECULE
Molecule Name_00351
    42    42     1     0     0
SMALL
NO_CHARGES
****
Generated from the CSD

@<TRIPOS>ATOM
     1 C1       3.5850  -0.3791  -0.0594   C.ar      1 1      0.0000
     2 C2       3.0756  -0.9614   1.0800   C.ar      1 1      0.0000
     3 C3       1.7093  -0.9179   1.2907   C.ar      1 1      0.0000
     4 C4       0.8548  -0.3016   0.3835   C.ar      1 1      0.0000
     5 C5       1.4114   0.2704  -0.7550   C.ar      1 1      0.0000
     6 C6       2.7747   0.2385  -0.9859   C.ar      1 1      0.0000
     7 H7       3.7319  -1.4439   1.7967   H         1 1      0.0000
     8 H8       1.3009  -1.3768   2.1845   H         1 1      0.0000
     9 H9       0.7661   0.7530  -1.4815   H         1 1      0.0000
    10 H10      3.1966   0.6901  -1.8777   H         1 1      0.0000
    11 N11      5.0336  -0.4181  -0.2930   N.pl3     1 1      0.0000
    12 O12      5.7625  -0.7100   0.6423   O.2       1 1      0.0000
    13 O13      5.4460  -0.1569  -1.4124   O.2       1 1      0.0000
    14 CL3     -0.6539  -0.2480   0.6288   C.3       1 1      0.0000
    15 CL1     -1.4280  -0.8810  -0.5621   C.3       1 1      0.0000
    16 H16     -1.4354  -0.1674  -1.3949   H         1 1      0.0000
    17 H17     -0.8727  -1.7629  -0.9045   H         1 1      0.0000
    18 CL      -2.8780  -1.3102  -0.2765   C.3       1 1      0.0000
    19 CL2     -3.6549  -0.1126   0.2389   C.3       1 1      0.0000
    20 H20     -4.6982  -0.3723   0.4053   H         1 1      0.0000
    21 H21     -3.2392   0.2407   1.1803   H         1 1      0.0000
    22 H22     -3.6194   0.7068  -0.4760   H         1 1      0.0000
    23 OL2     -0.9229  -0.9454   1.8386   O.3       1 1      0.0000
    24 H24     -1.8814  -0.8539   2.0645   H         1 1      0.0000
    25 N25     -3.5087  -1.7814  -1.4815   N.3       1 1      0.0000
    26 H26     -3.8207  -2.7358  -1.3023   H         1 1      0.0000
    27 C27     -4.6715  -1.0324  -1.9610   C.3       1 1      0.0000
    28 H28     -4.4146   0.0108  -2.1321   H         1 1      0.0000
    29 H29     -5.0395  -1.4487  -2.8964   H         1 1      0.0000
    30 H30     -5.4796  -1.0675  -1.2333   H         1 1      0.0000
    31 OL1     -2.8859  -2.2935   0.7516   O.3       1 1      0.0000
    32 H32     -3.8194  -2.5509   0.9530   H         1 1      0.0000
    33 CL4     -0.9837   1.2486   0.7982   C.2       1 1      0.0000
    34 C34     -1.0744   3.3540  -0.2906   C.3       1 1      0.0000
    35 H35     -0.7779   3.7729   0.6789   H         1 1      0.0000
    36 H36     -0.5015   3.8741  -1.0682   H         1 1      0.0000
    37 OL3     -1.3643   1.7315   1.8289   O.2       1 1      0.0000
    38 OL4     -0.7941   1.9236  -0.3291   O.3       1 1      0.0000
    39 C39     -2.5256   3.5463  -0.5090   C.3       1 1      0.0000
    40 H40     -3.1020   3.0426   0.2641   H         1 1      0.0000
    41 H41     -2.7820   4.6034  -0.4883   H         1 1      0.0000
    42 H42     -2.8272   3.1432  -1.4735   H         1 1      0.0000
@<TRIPOS>BOND
     1     1     2   ar
     2     1     6   ar
     3     1    11    1
     4     2     3   ar
     5     2     7    1
     6     3     4   ar
     7     3     8    1
     8     4     5   ar
     9     4    14    1
    10     5     6   ar
    11     5     9    1
    12     6    10    1
    13    11    12    2
    14    11    13    2
    15    14    15    1
    16    14    23    1
    17    14    33    1
    18    15    16    1
    19    15    17    1
    20    15    18    1
    21    18    19    1
    22    18    25    1
    23    18    31    1
    24    19    20    1
    25    19    21    1
    26    19    22    1
    27    23    24    1
    28    25    26    1
    29    25    27    1
    30    27    28    1
    31    27    29    1
    32    27    30    1
    33    31    32    1
    34    33    37    2
    35    33    38    1
    36    34    35    1
    37    34    36    1
    38    34    38    1
    39    34    39    1
    40    39    40    1
    41    39    41    1
    42    39    42    1
@<TRIPOS>SUBSTRUCTURE
     1 1           1 GROUP             0 ****  ****    0  
@<TRIPOS>MOLECULE
Molecule Name_00352
    42    42     1     0     0
SMALL
NO_CHARGES
****
Generated from the CSD

@<TRIPOS>ATOM
     1 C1       2.7544  -0.6872  -0.2444   C.ar      1 1      0.0000
     2 C2       1.9368  -0.5216  -1.3402   C.ar      1 1      0.0000
     3 C3       0.6287  -0.1218  -1.1349   C.ar      1 1      0.0000
     4 C4       0.1331   0.1096   0.1434   C.ar      1 1      0.0000
     5 C5       0.9943  -0.0663   1.2208   C.ar      1 1      0.0000
     6 C6       2.3060  -0.4654   1.0387   C.ar      1 1      0.0000
     7 H7       2.3107  -0.7007  -2.3428   H         1 1      0.0000
     8 H8      -0.0201   0.0133  -1.9934   H         1 1      0.0000
     9 H9       0.6342   0.1128   2.2284   H         1 1      0.0000
    10 H10      2.9673  -0.6007   1.8881   H         1 1      0.0000
    11 N11      4.1442  -1.1124  -0.4501   N.pl3     1 1      0.0000
    12 O12      4.8566  -1.2548   0.5315   O.2       1 1      0.0000
    13 O13      4.5268  -1.3048  -1.5937   O.2       1 1      0.0000
    14 CL3     -1.3175   0.5409   0.3633   C.3       1 1      0.0000
    15 CL1     -2.2685  -0.2076  -0.6133   C.3       1 1      0.0000
    16 H16     -3.2860   0.1780  -0.4770   H         1 1      0.0000
    17 H17     -1.9708   0.0377  -1.6402   H         1 1      0.0000
    18 CL      -2.3073  -1.7403  -0.4800   C.3       1 1      0.0000
    19 CL2     -3.7353  -2.2166  -0.6735   C.3       1 1      0.0000
    20 H20     -3.7979  -3.2982  -0.5736   H         1 1      0.0000
    21 H21     -4.3948  -1.7690   0.0671   H         1 1      0.0000
    22 H22     -4.1017  -1.9456  -1.6614   H         1 1      0.0000
    23 OL2     -1.6545   0.2607   1.7162   O.3       1 1      0.0000
    24 H24     -2.5778   0.5664   1.8951   H         1 1      0.0000
    25 N25     -1.4798  -2.3527  -1.4861   N.3       1 1      0.0000
    26 H26     -1.0924  -1.5992  -2.0541   H         1 1      0.0000
    27 C27     -0.3523  -3.1613  -1.0190   C.3       1 1      0.0000
    28 H28     -0.7033  -4.0234  -0.4555   H         1 1      0.0000
    29 H29      0.2373  -3.5226  -1.8589   H         1 1      0.0000
    30 H30      0.3000  -2.5771  -0.3733   H         1 1      0.0000
    31 OL1     -1.9128  -2.1104   0.8357   O.3       1 1      0.0000
    32 H32     -2.1164  -3.0669   0.9830   H         1 1      0.0000
    33 CL4     -1.3283   2.0637   0.1217   C.2       1 1      0.0000
    34 C34     -0.8055   4.1826   1.0509   C.3       1 1      0.0000
    35 H35     -0.1875   4.4801   0.1947   H         1 1      0.0000
    36 H36     -1.8155   4.5782   0.8870   H         1 1      0.0000
    37 OL3     -1.7277   2.5721  -0.8894   O.2       1 1      0.0000
    38 OL4     -0.8451   2.7293   1.1636   O.3       1 1      0.0000
    39 C39     -0.2393   4.7278   2.3049   C.3       1 1      0.0000
    40 H40      0.7671   4.3491   2.4704   H         1 1      0.0000
    41 H41     -0.1905   5.8140   2.2658   H         1 1      0.0000
    42 H42     -0.8520   4.4466   3.1589   H         1 1      0.0000
@<TRIPOS>BOND
     1     1     2   ar
     2     1     6   ar
     3     1    11    1
     4     2     3   ar
     5     2     7    1
     6     3     4   ar
     7     3     8    1
     8     4     5   ar
     9     4    14    1
    10     5     6   ar
    11     5     9    1
    12     6    10    1
    13    11    12    2
    14    11    13    2
    15    14    15    1
    16    14    23    1
    17    14    33    1
    18    15    16    1
    19    15    17    1
    20    15    18    1
    21    18    19    1
    22    18    25    1
    23    18    31    1
    24    19    20    1
    25    19    21    1
    26    19    22    1
    27    23    24    1
    28    25    26    1
    29    25    27    1
    30    27    28    1
    31    27    29    1
    32    27    30    1
    33    31    32    1
    34    33    37    2
    35    33    38    1
    36    34    35    1
    37    34    36    1
    38    34    38    1
    39    34    39    1
    40    39    40    1
    41    39    41    1
    42    39    42    1
@<TRIPOS>SUBSTRUCTURE
     1 1           1 GROUP             0 ****  ****    0  
@<TRIPOS>MOLECULE
Molecule Name_00353
    42    42     1     0     0
SMALL
NO_CHARGES
****
Generated from the CSD

@<TRIPOS>ATOM
     1 C1       3.4614  -0.3361  -0.2349   C.ar      1 1      0.0000
     2 C2       2.6713  -0.3049  -1.3624   C.ar      1 1      0.0000
     3 C3       1.2977  -0.2627  -1.2064   C.ar      1 1      0.0000
     4 C4       0.7108  -0.2539   0.0541   C.ar      1 1      0.0000
     5 C5       1.5464  -0.2828   1.1651   C.ar      1 1      0.0000
     6 C6       2.9224  -0.3251   1.0324   C.ar      1 1      0.0000
     7 H7       3.1167  -0.3131  -2.3517   H         1 1      0.0000
     8 H8       0.6693  -0.2352  -2.0899   H         1 1      0.0000
     9 H9       1.1141  -0.2715   2.1601   H         1 1      0.0000
    10 H10      3.5632  -0.3491   1.9076   H         1 1      0.0000
    11 N11      4.9206  -0.3823  -0.3882   N.pl3     1 1      0.0000
    12 O12      5.6074  -0.4096   0.6211   O.2       1 1      0.0000
    13 O13      5.3832  -0.3913  -1.5183   O.2       1 1      0.0000
    14 CL3     -0.8093  -0.2181   0.2185   C.3       1 1      0.0000
    15 CL1     -1.5061  -0.9974  -0.9328   C.3       1 1      0.0000
    16 H16     -1.2840  -0.4944  -1.8816   H         1 1      0.0000
    17 H17     -1.0597  -1.9978  -0.9915   H         1 1      0.0000
    18 CL      -3.0317  -1.1609  -0.8143   C.3       1 1      0.0000
    19 CL2     -3.6489  -1.0491  -2.1963   C.3       1 1      0.0000
    20 H20     -4.7310  -1.1494  -2.1447   H         1 1      0.0000
    21 H21     -3.4189  -0.0848  -2.6446   H         1 1      0.0000
    22 H22     -3.2673  -1.8279  -2.8533   H         1 1      0.0000
    23 OL2     -1.1236  -0.7893   1.4825   O.3       1 1      0.0000
    24 H24     -2.0182  -0.4804   1.7694   H         1 1      0.0000
    25 N25     -3.3573  -2.4532  -0.2702   N.3       1 1      0.0000
    26 H26     -2.6247  -3.0968  -0.5694   H         1 1      0.0000
    27 C27     -3.4517  -2.5575   1.1869   C.3       1 1      0.0000
    28 H28     -3.8605  -1.6438   1.6133   H         1 1      0.0000
    29 H29     -4.0984  -3.3842   1.4733   H         1 1      0.0000
    30 H30     -2.4706  -2.7269   1.6258   H         1 1      0.0000
    31 OL1     -3.5610  -0.1002  -0.0279   O.3       1 1      0.0000
    32 H32     -4.5443  -0.1908   0.0271   H         1 1      0.0000
    33 CL4     -1.1826   1.2777   0.2083   C.2       1 1      0.0000
    34 C34     -1.5722   3.1928   1.5525   C.3       1 1      0.0000
    35 H35     -2.3227   3.4639   0.7997   H         1 1      0.0000
    36 H36     -2.0015   3.3984   2.5409   H         1 1      0.0000
    37 OL3     -1.4030   1.8996  -0.7943   O.2       1 1      0.0000
    38 OL4     -1.2278   1.7807   1.4359   O.3       1 1      0.0000
    39 C39     -0.3389   3.9868   1.3549   C.3       1 1      0.0000
    40 H40      0.0884   3.7974   0.3724   H         1 1      0.0000
    41 H41     -0.5489   5.0515   1.4337   H         1 1      0.0000
    42 H42      0.4078   3.7323   2.1041   H         1 1      0.0000
@<TRIPOS>BOND
     1     1     2   ar
     2     1     6   ar
     3     1    11    1
     4     2     3   ar
     5     2     7    1
     6     3     4   ar
     7     3     8    1
     8     4     5   ar
     9     4    14    1
    10     5     6   ar
    11     5     9    1
    12     6    10    1
    13    11    12    2
    14    11    13    2
    15    14    15    1
    16    14    23    1
    17    14    33    1
    18    15    16    1
    19    15    17    1
    20    15    18    1
    21    18    19    1
    22    18    25    1
    23    18    31    1
    24    19    20    1
    25    19    21    1
    26    19    22    1
    27    23    24    1
    28    25    26    1
    29    25    27    1
    30    27    28    1
    31    27    29    1
    32    27    30    1
    33    31    32    1
    34    33    37    2
    35    33    38    1
    36    34    35    1
    37    34    36    1
    38    34    38    1
    39    34    39    1
    40    39    40    1
    41    39    41    1
    42    39    42    1
@<TRIPOS>SUBSTRUCTURE
     1 1           1 GROUP             0 ****  ****    0  
@<TRIPOS>MOLECULE
Molecule Name_00354
    42    42     1     0     0
SMALL
NO_CHARGES
****
Generated from the CSD

@<TRIPOS>ATOM
     1 C1       3.5669  -0.4861  -0.2062   C.ar      1 1      0.0000
     2 C2       2.7907  -0.4196  -1.3419   C.ar      1 1      0.0000
     3 C3       1.4196  -0.3057  -1.2000   C.ar      1 1      0.0000
     4 C4       0.8215  -0.2605   0.0544   C.ar      1 1      0.0000
     5 C5       1.6434  -0.3271   1.1739   C.ar      1 1      0.0000
     6 C6       3.0166  -0.4411   1.0554   C.ar      1 1      0.0000
     7 H7       3.2449  -0.4557  -2.3266   H         1 1      0.0000
     8 H8       0.8023  -0.2501  -2.0900   H         1 1      0.0000
     9 H9       1.2024  -0.2885   2.1644   H         1 1      0.0000
    10 H10      3.6466  -0.4937   1.9372   H         1 1      0.0000
    11 N11      5.0232  -0.6083  -0.3446   N.pl3     1 1      0.0000
    12 O12      5.6977  -0.6661   0.6718   O.2       1 1      0.0000
    13 O13      5.4958  -0.6468  -1.4699   O.2       1 1      0.0000
    14 CL3     -0.6963  -0.1454   0.2033   C.3       1 1      0.0000
    15 CL1     -1.4210  -0.8933  -0.9516   C.3       1 1      0.0000
    16 H16     -1.1638  -0.4071  -1.9004   H         1 1      0.0000
    17 H17     -1.0264  -1.9157  -1.0014   H         1 1      0.0000
    18 CL      -2.9541  -0.9772  -0.8479   C.3       1 1      0.0000
    19 CL2     -3.5510  -0.8405  -2.2366   C.3       1 1      0.0000
    20 H20     -4.6373  -0.8845  -2.1955   H         1 1      0.0000
    21 H21     -3.2670   0.1085  -2.6868   H         1 1      0.0000
    22 H22     -3.2036  -1.6412  -2.8862   H         1 1      0.0000
    23 OL2     -1.0522  -0.6934   1.4664   O.3       1 1      0.0000
    24 H24     -1.9325  -0.3373   1.7429   H         1 1      0.0000
    25 N25     -3.3514  -2.2482  -0.3015   N.3       1 1      0.0000
    26 H26     -2.6502  -2.9303  -0.5904   H         1 1      0.0000
    27 C27     -3.4655  -2.3404   1.1550   C.3       1 1      0.0000
    28 H28     -3.8308  -1.4047   1.5732   H         1 1      0.0000
    29 H29     -4.1570  -3.1311   1.4385   H         1 1      0.0000
    30 H30     -2.4990  -2.5581   1.6046   H         1 1      0.0000
    31 OL1     -3.4357   0.1133  -0.0716   O.3       1 1      0.0000
    32 H32     -4.4228   0.0738  -0.0262   H         1 1      0.0000
    33 CL4     -0.9916   1.3677   0.1826   C.2       1 1      0.0000
    34 C34     -1.2950   3.3069   1.5144   C.3       1 1      0.0000
    35 H35     -0.8829   3.7027   2.4509   H         1 1      0.0000
    36 H36     -0.8199   3.8468   0.6861   H         1 1      0.0000
    37 OL3     -1.1696   1.9951  -0.8249   O.2       1 1      0.0000
    38 OL4     -1.0230   1.8783   1.4075   O.3       1 1      0.0000
    39 C39     -2.7618   3.5017   1.4780   C.3       1 1      0.0000
    40 H40     -3.2409   2.9783   2.3027   H         1 1      0.0000
    41 H41     -3.0126   4.5576   1.5553   H         1 1      0.0000
    42 H42     -3.1783   3.1215   0.5476   H         1 1      0.0000
@<TRIPOS>BOND
     1     1     2   ar
     2     1     6   ar
     3     1    11    1
     4     2     3   ar
     5     2     7    1
     6     3     4   ar
     7     3     8    1
     8     4     5   ar
     9     4    14    1
    10     5     6   ar
    11     5     9    1
    12     6    10    1
    13    11    12    2
    14    11    13    2
    15    14    15    1
    16    14    23    1
    17    14    33    1
    18    15    16    1
    19    15    17    1
    20    15    18    1
    21    18    19    1
    22    18    25    1
    23    18    31    1
    24    19    20    1
    25    19    21    1
    26    19    22    1
    27    23    24    1
    28    25    26    1
    29    25    27    1
    30    27    28    1
    31    27    29    1
    32    27    30    1
    33    31    32    1
    34    33    37    2
    35    33    38    1
    36    34    35    1
    37    34    36    1
    38    34    38    1
    39    34    39    1
    40    39    40    1
    41    39    41    1
    42    39    42    1
@<TRIPOS>SUBSTRUCTURE
     1 1           1 GROUP             0 ****  ****    0  
@<TRIPOS>MOLECULE
Molecule Name_00355
    42    42     1     0     0
SMALL
NO_CHARGES
****
Generated from the CSD

@<TRIPOS>ATOM
     1 C1       3.4409  -0.3236  -0.1362   C.ar      1 1      0.0000
     2 C2       2.6074  -0.5718  -1.2040   C.ar      1 1      0.0000
     3 C3       1.2402  -0.5266  -1.0002   C.ar      1 1      0.0000
     4 C4       0.7022  -0.2408   0.2497   C.ar      1 1      0.0000
     5 C5       1.5804   0.0069   1.2989   C.ar      1 1      0.0000
     6 C6       2.9510  -0.0330   1.1176   C.ar      1 1      0.0000
     7 H7       3.0145  -0.7978  -2.1840   H         1 1      0.0000
     8 H8       0.5777  -0.7183  -1.8372   H         1 1      0.0000
     9 H9       1.1866   0.2376   2.2831   H         1 1      0.0000
    10 H10      3.6254   0.1606   1.9452   H         1 1      0.0000
    11 N11      4.8938  -0.3700  -0.3404   N.pl3     1 1      0.0000
    12 O12      5.6195  -0.1477   0.6162   O.2       1 1      0.0000
    13 O13      5.3126  -0.6289  -1.4579   O.2       1 1      0.0000
    14 CL3     -0.8107  -0.2032   0.4699   C.3       1 1      0.0000
    15 CL1     -1.5253  -1.2431  -0.4392   C.3       1 1      0.0000
    16 H16     -1.5464  -0.8565  -1.4652   H         1 1      0.0000
    17 H17     -0.9208  -2.1584  -0.4571   H         1 1      0.0000
    18 CL      -2.9597  -1.6254  -0.0338   C.3       1 1      0.0000
    19 CL2     -3.6592  -0.3985   0.5220   C.3       1 1      0.0000
    20 H20     -4.7020  -0.6161   0.7431   H         1 1      0.0000
    21 H21     -3.1806  -0.0646   1.4403   H         1 1      0.0000
    22 H22     -3.6281   0.4205  -0.1935   H         1 1      0.0000
    23 OL2     -1.0572  -0.4744   1.8440   O.3       1 1      0.0000
    24 H24     -0.8969  -1.4337   2.0236   H         1 1      0.0000
    25 N25     -3.6968  -2.0939  -1.1781   N.3       1 1      0.0000
    26 H26     -4.6212  -2.3689  -0.8462   H         1 1      0.0000
    27 C27     -3.8989  -1.1446  -2.2740   C.3       1 1      0.0000
    28 H28     -3.5283  -1.5534  -3.2117   H         1 1      0.0000
    29 H29     -4.9557  -0.9175  -2.3975   H         1 1      0.0000
    30 H30     -3.3725  -0.2126  -2.0790   H         1 1      0.0000
    31 OL1     -2.9145  -2.5941   1.0071   O.3       1 1      0.0000
    32 H32     -3.8361  -2.8210   1.2852   H         1 1      0.0000
    33 CL4     -1.2332   1.2408   0.1332   C.2       1 1      0.0000
    34 C34     -1.3424   3.4707   0.9346   C.3       1 1      0.0000
    35 H35     -2.2703   3.5440   0.3540   H         1 1      0.0000
    36 H36     -1.5130   3.9628   1.9001   H         1 1      0.0000
    37 OL3     -1.7267   1.5608  -0.9130   O.2       1 1      0.0000
    38 OL4     -0.9835   2.0720   1.1377   O.3       1 1      0.0000
    39 C39     -0.2328   4.1319   0.2120   C.3       1 1      0.0000
    40 H40     -0.0633   3.6571  -0.7521   H         1 1      0.0000
    41 H41     -0.4577   5.1821   0.0377   H         1 1      0.0000
    42 H42      0.6899   4.0736   0.7855   H         1 1      0.0000
@<TRIPOS>BOND
     1     1     2   ar
     2     1     6   ar
     3     1    11    1
     4     2     3   ar
     5     2     7    1
     6     3     4   ar
     7     3     8    1
     8     4     5   ar
     9     4    14    1
    10     5     6   ar
    11     5     9    1
    12     6    10    1
    13    11    12    2
    14    11    13    2
    15    14    15    1
    16    14    23    1
    17    14    33    1
    18    15    16    1
    19    15    17    1
    20    15    18    1
    21    18    19    1
    22    18    25    1
    23    18    31    1
    24    19    20    1
    25    19    21    1
    26    19    22    1
    27    23    24    1
    28    25    26    1
    29    25    27    1
    30    27    28    1
    31    27    29    1
    32    27    30    1
    33    31    32    1
    34    33    37    2
    35    33    38    1
    36    34    35    1
    37    34    36    1
    38    34    38    1
    39    34    39    1
    40    39    40    1
    41    39    41    1
    42    39    42    1
@<TRIPOS>SUBSTRUCTURE
     1 1           1 GROUP             0 ****  ****    0  
@<TRIPOS>MOLECULE
Molecule Name_00356
    42    42     1     0     0
SMALL
NO_CHARGES
****
Generated from the CSD

@<TRIPOS>ATOM
     1 C1       3.5402  -0.4826  -0.1024   C.ar      1 1      0.0000
     2 C2       2.7095  -0.7719  -1.1620   C.ar      1 1      0.0000
     3 C3       1.3436  -0.6450  -0.9854   C.ar      1 1      0.0000
     4 C4       0.8042  -0.2380   0.2298   C.ar      1 1      0.0000
     5 C5       1.6797   0.0472   1.2716   C.ar      1 1      0.0000
     6 C6       3.0489  -0.0727   1.1171   C.ar      1 1      0.0000
     7 H7       3.1177  -1.0922  -2.1149   H         1 1      0.0000
     8 H8       0.6835  -0.8685  -1.8164   H         1 1      0.0000
     9 H9       1.2849   0.3718   2.2286   H         1 1      0.0000
    10 H10      3.7212   0.1513   1.9387   H         1 1      0.0000
    11 N11      4.9916  -0.6148  -0.2779   N.pl3     1 1      0.0000
    12 O12      5.7148  -0.3547   0.6710   O.2       1 1      0.0000
    13 O13      5.4117  -0.9791  -1.3652   O.2       1 1      0.0000
    14 CL3     -0.7078  -0.1105   0.4209   C.3       1 1      0.0000
    15 CL1     -1.4610  -1.1817  -0.4180   C.3       1 1      0.0000
    16 H16     -1.4495  -0.8748  -1.4708   H         1 1      0.0000
    17 H17     -0.9024  -2.1237  -0.3556   H         1 1      0.0000
    18 CL      -2.9178  -1.4618  -0.0088   C.3       1 1      0.0000
    19 CL2     -3.5629  -0.1633   0.4398   C.3       1 1      0.0000
    20 H20     -4.6180  -0.3125   0.6592   H         1 1      0.0000
    21 H21     -3.0804   0.2170   1.3378   H         1 1      0.0000
    22 H22     -3.4820   0.5956  -0.3357   H         1 1      0.0000
    23 OL2     -0.9854  -0.2626   1.8073   O.3       1 1      0.0000
    24 H24     -0.8752  -1.2118   2.0624   H         1 1      0.0000
    25 N25     -3.6620  -1.9810  -1.1262   N.3       1 1      0.0000
    26 H26     -4.6033  -2.1846  -0.7900   H         1 1      0.0000
    27 C27     -3.8026  -1.1104  -2.2947   C.3       1 1      0.0000
    28 H28     -3.4404  -1.6078  -3.1920   H         1 1      0.0000
    29 H29     -4.8452  -0.8427  -2.4530   H         1 1      0.0000
    30 H30     -3.2333  -0.1927  -2.1626   H         1 1      0.0000
    31 OL1     -2.9342  -2.3483   1.1037   O.3       1 1      0.0000
    32 H32     -3.8694  -2.5083   1.3827   H         1 1      0.0000
    33 CL4     -1.0539   1.3220  -0.0322   C.2       1 1      0.0000
    34 C34     -1.0631   3.6097   0.5944   C.3       1 1      0.0000
    35 H35     -0.4312   4.2729   1.1980   H         1 1      0.0000
    36 H36     -0.8463   3.8122  -0.4617   H         1 1      0.0000
    37 OL3     -1.5172   1.5838  -1.1080   O.2       1 1      0.0000
    38 OL4     -0.7766   2.2152   0.9098   O.3       1 1      0.0000
    39 C39     -2.4926   3.8638   0.8815   C.3       1 1      0.0000
    40 H40     -2.7149   3.6758   1.9298   H         1 1      0.0000
    41 H41     -2.7528   4.8967   0.6599   H         1 1      0.0000
    42 H42     -3.1277   3.2176   0.2791   H         1 1      0.0000
@<TRIPOS>BOND
     1     1     2   ar
     2     1     6   ar
     3     1    11    1
     4     2     3   ar
     5     2     7    1
     6     3     4   ar
     7     3     8    1
     8     4     5   ar
     9     4    14    1
    10     5     6   ar
    11     5     9    1
    12     6    10    1
    13    11    12    2
    14    11    13    2
    15    14    15    1
    16    14    23    1
    17    14    33    1
    18    15    16    1
    19    15    17    1
    20    15    18    1
    21    18    19    1
    22    18    25    1
    23    18    31    1
    24    19    20    1
    25    19    21    1
    26    19    22    1
    27    23    24    1
    28    25    26    1
    29    25    27    1
    30    27    28    1
    31    27    29    1
    32    27    30    1
    33    31    32    1
    34    33    37    2
    35    33    38    1
    36    34    35    1
    37    34    36    1
    38    34    38    1
    39    34    39    1
    40    39    40    1
    41    39    41    1
    42    39    42    1
@<TRIPOS>SUBSTRUCTURE
     1 1           1 GROUP             0 ****  ****    0  
@<TRIPOS>MOLECULE
Molecule Name_00357
    42    42     1     0     0
SMALL
NO_CHARGES
****
Generated from the CSD

@<TRIPOS>ATOM
     1 C1       3.3979  -0.3476  -0.1444   C.ar      1 1      0.0000
     2 C2       2.5620  -0.5310  -1.2235   C.ar      1 1      0.0000
     3 C3       1.1963  -0.4400  -1.0251   C.ar      1 1      0.0000
     4 C4       0.6620  -0.1724   0.2304   C.ar      1 1      0.0000
     5 C5       1.5425   0.0093   1.2911   C.ar      1 1      0.0000
     6 C6       2.9116  -0.0772   1.1154   C.ar      1 1      0.0000
     7 H7       2.9662  -0.7421  -2.2080   H         1 1      0.0000
     8 H8       0.5321  -0.5805  -1.8709   H         1 1      0.0000
     9 H9       1.1517   0.2244   2.2800   H         1 1      0.0000
    10 H10      3.5879   0.0651   1.9518   H         1 1      0.0000
    11 N11      4.8491  -0.4431  -0.3428   N.pl3     1 1      0.0000
    12 O12      5.5769  -0.2781   0.6238   O.2       1 1      0.0000
    13 O13      5.2646  -0.6833  -1.4657   O.2       1 1      0.0000
    14 CL3     -0.8498  -0.0840   0.4442   C.3       1 1      0.0000
    15 CL1     -1.5977  -1.0676  -0.5001   C.3       1 1      0.0000
    16 H16     -1.5976  -0.6493  -1.5139   H         1 1      0.0000
    17 H17     -1.0285  -2.0044  -0.5430   H         1 1      0.0000
    18 CL      -3.0482  -1.4068  -0.1140   C.3       1 1      0.0000
    19 CL2     -3.7031  -0.1723   0.4779   C.3       1 1      0.0000
    20 H20     -4.7548  -0.3564   0.6874   H         1 1      0.0000
    21 H21     -3.2171   0.1134   1.4085   H         1 1      0.0000
    22 H22     -3.6367   0.6674  -0.2108   H         1 1      0.0000
    23 OL2     -1.1147  -0.3877   1.8080   O.3       1 1      0.0000
    24 H24     -1.3023  -1.3544   1.8991   H         1 1      0.0000
    25 N25     -3.7960  -1.8094  -1.2763   N.3       1 1      0.0000
    26 H26     -3.7903  -1.0209  -1.9234   H         1 1      0.0000
    27 C27     -3.3036  -2.9739  -2.0142   C.3       1 1      0.0000
    28 H28     -3.2853  -3.8551  -1.3764   H         1 1      0.0000
    29 H29     -3.9423  -3.1872  -2.8688   H         1 1      0.0000
    30 H30     -2.2941  -2.7997  -2.3807   H         1 1      0.0000
    31 OL1     -3.0466  -2.4095   0.8951   O.3       1 1      0.0000
    32 H32     -3.9779  -2.6093   1.1614   H         1 1      0.0000
    33 CL4     -1.2152   1.3847   0.1502   C.2       1 1      0.0000
    34 C34     -1.2446   3.5915   1.0196   C.3       1 1      0.0000
    35 H35     -2.1655   3.7178   0.4370   H         1 1      0.0000
    36 H36     -1.4023   4.0598   1.9990   H         1 1      0.0000
    37 OL3     -1.6897   1.7552  -0.8880   O.2       1 1      0.0000
    38 OL4     -0.9403   2.1746   1.1811   O.3       1 1      0.0000
    39 C39     -0.1064   4.2318   0.3233   C.3       1 1      0.0000
    40 H40      0.0510   3.7807  -0.6542   H         1 1      0.0000
    41 H41     -0.2902   5.2946   0.1804   H         1 1      0.0000
    42 H42      0.8100   4.1208   0.8993   H         1 1      0.0000
@<TRIPOS>BOND
     1     1     2   ar
     2     1     6   ar
     3     1    11    1
     4     2     3   ar
     5     2     7    1
     6     3     4   ar
     7     3     8    1
     8     4     5   ar
     9     4    14    1
    10     5     6   ar
    11     5     9    1
    12     6    10    1
    13    11    12    2
    14    11    13    2
    15    14    15    1
    16    14    23    1
    17    14    33    1
    18    15    16    1
    19    15    17    1
    20    15    18    1
    21    18    19    1
    22    18    25    1
    23    18    31    1
    24    19    20    1
    25    19    21    1
    26    19    22    1
    27    23    24    1
    28    25    26    1
    29    25    27    1
    30    27    28    1
    31    27    29    1
    32    27    30    1
    33    31    32    1
    34    33    37    2
    35    33    38    1
    36    34    35    1
    37    34    36    1
    38    34    38    1
    39    34    39    1
    40    39    40    1
    41    39    41    1
    42    39    42    1
@<TRIPOS>SUBSTRUCTURE
     1 1           1 GROUP             0 ****  ****    0  
@<TRIPOS>MOLECULE
Molecule Name_00358
    42    42     1     0     0
SMALL
NO_CHARGES
****
Generated from the CSD

@<TRIPOS>ATOM
     1 C1       3.4974  -0.5042  -0.1127   C.ar      1 1      0.0000
     2 C2       2.6680  -0.7194  -1.1909   C.ar      1 1      0.0000
     3 C3       1.3058  -0.5501  -1.0215   C.ar      1 1      0.0000
     4 C4       0.7686  -0.1737   0.2045   C.ar      1 1      0.0000
     5 C5       1.6429   0.0365   1.2651   C.ar      1 1      0.0000
     6 C6       3.0083  -0.1269   1.1181   C.ar      1 1      0.0000
     7 H7       3.0744  -1.0151  -2.1524   H         1 1      0.0000
     8 H8       0.6468  -0.7152  -1.8669   H         1 1      0.0000
     9 H9       1.2500   0.3359   2.2310   H         1 1      0.0000
    10 H10      3.6796   0.0386   1.9543   H         1 1      0.0000
    11 N11      4.9448  -0.6820  -0.2805   N.pl3     1 1      0.0000
    12 O12      5.6669  -0.4875   0.6849   O.2       1 1      0.0000
    13 O13      5.3629  -1.0166  -1.3780   O.2       1 1      0.0000
    14 CL3     -0.7397   0.0009   0.3871   C.3       1 1      0.0000
    15 CL1     -1.5222  -1.0068  -0.5020   C.3       1 1      0.0000
    16 H16     -1.4883  -0.6580  -1.5412   H         1 1      0.0000
    17 H17     -0.9988  -1.9705  -0.4732   H         1 1      0.0000
    18 CL      -2.9925  -1.2497  -0.1182   C.3       1 1      0.0000
    19 CL2     -3.5942   0.0517   0.3797   C.3       1 1      0.0000
    20 H20     -4.6562  -0.0675   0.5836   H         1 1      0.0000
    21 H21     -3.1072   0.3756   1.2971   H         1 1      0.0000
    22 H22     -3.4777   0.8390  -0.3621   H         1 1      0.0000
    23 OL2     -1.0372  -0.1975   1.7635   O.3       1 1      0.0000
    24 H24     -1.2729  -1.1459   1.9155   H         1 1      0.0000
    25 N25     -3.7436  -1.6931  -1.2633   N.3       1 1      0.0000
    26 H26     -3.6909  -0.9511  -1.9611   H         1 1      0.0000
    27 C27     -3.2989  -2.9267  -1.9141   C.3       1 1      0.0000
    28 H28     -3.3320  -3.7631  -1.2190   H         1 1      0.0000
    29 H29     -3.9359  -3.1662  -2.7630   H         1 1      0.0000
    30 H30     -2.2773  -2.8260  -2.2747   H         1 1      0.0000
    31 OL1     -3.0531  -2.1814   0.9552   O.3       1 1      0.0000
    32 H32     -3.9965  -2.3181   1.2188   H         1 1      0.0000
    33 CL4     -1.0291   1.4625  -0.0097   C.2       1 1      0.0000
    34 C34     -0.9624   3.7214   0.7107   C.3       1 1      0.0000
    35 H35     -0.3134   4.3359   1.3468   H         1 1      0.0000
    36 H36     -0.7273   3.9589  -0.3341   H         1 1      0.0000
    37 OL3     -1.4713   1.7847  -1.0779   O.2       1 1      0.0000
    38 OL4     -0.7297   2.3056   0.9709   O.3       1 1      0.0000
    39 C39     -2.3847   4.0156   0.9950   C.3       1 1      0.0000
    40 H40     -2.6247   3.7930   2.0326   H         1 1      0.0000
    41 H41     -2.6051   5.0655   0.8138   H         1 1      0.0000
    42 H42     -3.0364   3.4181   0.3608   H         1 1      0.0000
@<TRIPOS>BOND
     1     1     2   ar
     2     1     6   ar
     3     1    11    1
     4     2     3   ar
     5     2     7    1
     6     3     4   ar
     7     3     8    1
     8     4     5   ar
     9     4    14    1
    10     5     6   ar
    11     5     9    1
    12     6    10    1
    13    11    12    2
    14    11    13    2
    15    14    15    1
    16    14    23    1
    17    14    33    1
    18    15    16    1
    19    15    17    1
    20    15    18    1
    21    18    19    1
    22    18    25    1
    23    18    31    1
    24    19    20    1
    25    19    21    1
    26    19    22    1
    27    23    24    1
    28    25    26    1
    29    25    27    1
    30    27    28    1
    31    27    29    1
    32    27    30    1
    33    31    32    1
    34    33    37    2
    35    33    38    1
    36    34    35    1
    37    34    36    1
    38    34    38    1
    39    34    39    1
    40    39    40    1
    41    39    41    1
    42    39    42    1
@<TRIPOS>SUBSTRUCTURE
     1 1           1 GROUP             0 ****  ****    0  
@<TRIPOS>MOLECULE
Molecule Name_00359
    42    42     1     0     0
SMALL
NO_CHARGES
****
Generated from the CSD

@<TRIPOS>ATOM
     1 C1       3.5756  -0.3209  -0.1574   C.ar      1 1      0.0000
     2 C2       3.0990  -0.5561   1.1131   C.ar      1 1      0.0000
     3 C3       1.7322  -0.5276   1.3226   C.ar      1 1      0.0000
     4 C4       0.8447  -0.2662   0.2847   C.ar      1 1      0.0000
     5 C5       1.3690  -0.0379  -0.9827   C.ar      1 1      0.0000
     6 C6       2.7322  -0.0617  -1.2148   C.ar      1 1      0.0000
     7 H7       3.7811  -0.7595   1.9321   H         1 1      0.0000
     8 H8       1.3497  -0.7146   2.3201   H         1 1      0.0000
     9 H9       0.6979   0.1632  -1.8111   H         1 1      0.0000
    10 H10      3.1286   0.1198  -2.2084   H         1 1      0.0000
    11 N11      5.0245  -0.3475  -0.3913   N.pl3     1 1      0.0000
    12 O12      5.4313  -0.1370  -1.5233   O.2       1 1      0.0000
    13 O13      5.7590  -0.5788   0.5564   O.2       1 1      0.0000
    14 CL3     -0.6649  -0.2256   0.5262   C.3       1 1      0.0000
    15 CL1     -1.3814  -1.3476  -0.2776   C.3       1 1      0.0000
    16 H16     -0.9833  -1.3562  -1.2994   H         1 1      0.0000
    17 H17     -1.1219  -2.3137   0.1726   H         1 1      0.0000
    18 CL      -2.9155  -1.2526  -0.3541   C.3       1 1      0.0000
    19 CL2     -3.2987  -0.4163  -1.5613   C.3       1 1      0.0000
    20 H20     -4.0091  -0.9492  -2.1898   H         1 1      0.0000
    21 H21     -3.7565   0.5209  -1.2516   H         1 1      0.0000
    22 H22     -2.4225  -0.1830  -2.1626   H         1 1      0.0000
    23 OL2     -0.8864  -0.3796   1.9226   O.3       1 1      0.0000
    24 H24     -1.8554  -0.3182   2.1104   H         1 1      0.0000
    25 N25     -3.4928  -2.5628  -0.5025   N.3       1 1      0.0000
    26 H26     -3.1879  -3.1164   0.2981   H         1 1      0.0000
    27 C27     -4.9536  -2.6451  -0.5502   C.3       1 1      0.0000
    28 H28     -5.3269  -2.3196  -1.5189   H         1 1      0.0000
    29 H29     -5.2879  -3.6671  -0.3841   H         1 1      0.0000
    30 H30     -5.4006  -2.0138   0.2149   H         1 1      0.0000
    31 OL1     -3.4054  -0.5792   0.7993   O.3       1 1      0.0000
    32 H32     -4.3694  -0.3900   0.6847   H         1 1      0.0000
    33 CL4     -1.1098   1.1795   0.0735   C.2       1 1      0.0000
    34 C34     -1.8819   3.3015   0.7996   C.3       1 1      0.0000
    35 H35     -2.4690   3.3105  -0.1271   H         1 1      0.0000
    36 H36     -2.5223   3.6837   1.6041   H         1 1      0.0000
    37 OL3     -1.1461   1.5258  -1.0751   O.2       1 1      0.0000
    38 OL4     -1.4429   1.9451   1.1055   O.3       1 1      0.0000
    39 C39     -0.6808   4.1537   0.6528   C.3       1 1      0.0000
    40 H40     -0.0445   3.7883  -0.1505   H         1 1      0.0000
    41 H41     -0.9613   5.1794   0.4230   H         1 1      0.0000
    42 H42     -0.0975   4.1595   1.5712   H         1 1      0.0000
@<TRIPOS>BOND
     1     1     2   ar
     2     1     6   ar
     3     1    11    1
     4     2     3   ar
     5     2     7    1
     6     3     4   ar
     7     3     8    1
     8     4     5   ar
     9     4    14    1
    10     5     6   ar
    11     5     9    1
    12     6    10    1
    13    11    12    2
    14    11    13    2
    15    14    15    1
    16    14    23    1
    17    14    33    1
    18    15    16    1
    19    15    17    1
    20    15    18    1
    21    18    19    1
    22    18    25    1
    23    18    31    1
    24    19    20    1
    25    19    21    1
    26    19    22    1
    27    23    24    1
    28    25    26    1
    29    25    27    1
    30    27    28    1
    31    27    29    1
    32    27    30    1
    33    31    32    1
    34    33    37    2
    35    33    38    1
    36    34    35    1
    37    34    36    1
    38    34    38    1
    39    34    39    1
    40    39    40    1
    41    39    41    1
    42    39    42    1
@<TRIPOS>SUBSTRUCTURE
     1 1           1 GROUP             0 ****  ****    0  
@<TRIPOS>MOLECULE
Molecule Name_00360
    42    42     1     0     0
SMALL
NO_CHARGES
****
Generated from the CSD

@<TRIPOS>ATOM
     1 C1       3.4776  -0.4084  -0.1490   C.ar      1 1      0.0000
     2 C2       3.0181  -0.5637   1.1400   C.ar      1 1      0.0000
     3 C3       1.6571  -0.4795   1.3716   C.ar      1 1      0.0000
     4 C4       0.7588  -0.2413   0.3374   C.ar      1 1      0.0000
     5 C5       1.2659  -0.0943  -0.9489   C.ar      1 1      0.0000
     6 C6       2.6229  -0.1748  -1.2033   C.ar      1 1      0.0000
     7 H7       3.7088  -0.7482   1.9561   H         1 1      0.0000
     8 H8       1.2879  -0.6035   2.3838   H         1 1      0.0000
     9 H9       0.5859   0.0871  -1.7745   H         1 1      0.0000
    10 H10      3.0059  -0.0566  -2.2115   H         1 1      0.0000
    11 N11      4.9201  -0.4946  -0.4065   N.pl3     1 1      0.0000
    12 O12      5.3118  -0.3548  -1.5547   O.2       1 1      0.0000
    13 O13      5.6648  -0.7024   0.5387   O.2       1 1      0.0000
    14 CL3     -0.7438  -0.1386   0.6029   C.3       1 1      0.0000
    15 CL1     -1.5112  -1.2757  -0.1295   C.3       1 1      0.0000
    16 H16     -1.1329  -1.3496  -1.1563   H         1 1      0.0000
    17 H17     -1.2745  -2.2257   0.3653   H         1 1      0.0000
    18 CL      -3.0426  -1.1339  -0.1844   C.3       1 1      0.0000
    19 CL2     -3.4207  -0.3389  -1.4207   C.3       1 1      0.0000
    20 H20     -4.3944  -0.6478  -1.7950   H         1 1      0.0000
    21 H21     -3.4657   0.7248  -1.1964   H         1 1      0.0000
    22 H22     -2.6902  -0.4875  -2.2132   H         1 1      0.0000
    23 OL2     -0.9433  -0.2141   2.0090   O.3       1 1      0.0000
    24 H24     -1.9061  -0.1113   2.2104   H         1 1      0.0000
    25 N25     -3.6641  -2.4297  -0.2652   N.3       1 1      0.0000
    26 H26     -4.6724  -2.2771  -0.2850   H         1 1      0.0000
    27 C27     -3.3321  -3.2560  -1.4271   C.3       1 1      0.0000
    28 H28     -2.2635  -3.4572  -1.4647   H         1 1      0.0000
    29 H29     -3.8551  -4.2091  -1.3847   H         1 1      0.0000
    30 H30     -3.6153  -2.7549  -2.3504   H         1 1      0.0000
    31 OL1     -3.4896  -0.3953   0.9462   O.3       1 1      0.0000
    32 H32     -4.4710  -0.2822   0.8979   H         1 1      0.0000
    33 CL4     -1.1521   1.2555   0.0864   C.2       1 1      0.0000
    34 C34     -1.8381   3.4371   0.7160   C.3       1 1      0.0000
    35 H35     -2.4445   3.4183  -0.1979   H         1 1      0.0000
    36 H36     -2.4480   3.8817   1.5121   H         1 1      0.0000
    37 OL3     -1.2018   1.5433  -1.0777   O.2       1 1      0.0000
    38 OL4     -1.4374   2.0841   1.0835   O.3       1 1      0.0000
    39 C39     -0.6131   4.2393   0.5011   C.3       1 1      0.0000
    40 H40     -0.0067   3.8117  -0.2946   H         1 1      0.0000
    41 H41     -0.8647   5.2608   0.2238   H         1 1      0.0000
    42 H42     -0.0101   4.2726   1.4062   H         1 1      0.0000
@<TRIPOS>BOND
     1     1     2   ar
     2     1     6   ar
     3     1    11    1
     4     2     3   ar
     5     2     7    1
     6     3     4   ar
     7     3     8    1
     8     4     5   ar
     9     4    14    1
    10     5     6   ar
    11     5     9    1
    12     6    10    1
    13    11    12    2
    14    11    13    2
    15    14    15    1
    16    14    23    1
    17    14    33    1
    18    15    16    1
    19    15    17    1
    20    15    18    1
    21    18    19    1
    22    18    25    1
    23    18    31    1
    24    19    20    1
    25    19    21    1
    26    19    22    1
    27    23    24    1
    28    25    26    1
    29    25    27    1
    30    27    28    1
    31    27    29    1
    32    27    30    1
    33    31    32    1
    34    33    37    2
    35    33    38    1
    36    34    35    1
    37    34    36    1
    38    34    38    1
    39    34    39    1
    40    39    40    1
    41    39    41    1
    42    39    42    1
@<TRIPOS>SUBSTRUCTURE
     1 1           1 GROUP             0 ****  ****    0  
@<TRIPOS>MOLECULE
Molecule Name_00361
    42    42     1     0     0
SMALL
NO_CHARGES
****
Generated from the CSD

@<TRIPOS>ATOM
     1 C1       3.4893  -0.3874  -0.1774   C.ar      1 1      0.0000
     2 C2       2.9856  -0.6767   1.0713   C.ar      1 1      0.0000
     3 C3       1.6175  -0.6116   1.2638   C.ar      1 1      0.0000
     4 C4       0.7556  -0.2607   0.2308   C.ar      1 1      0.0000
     5 C5       1.3068   0.0199  -1.0145   C.ar      1 1      0.0000
     6 C6       2.6718  -0.0392  -1.2295   C.ar      1 1      0.0000
     7 H7       3.6476  -0.9501   1.8863   H         1 1      0.0000
     8 H8       1.2135  -0.8408   2.2439   H         1 1      0.0000
     9 H9       0.6558   0.2910  -1.8390   H         1 1      0.0000
    10 H10      3.0894   0.1837  -2.2058   H         1 1      0.0000
    11 N11      4.9399  -0.4522  -0.3932   N.pl3     1 1      0.0000
    12 O12      5.3710  -0.1929  -1.5059   O.2       1 1      0.0000
    13 O13      5.6513  -0.7626   0.5495   O.2       1 1      0.0000
    14 CL3     -0.7553  -0.1802   0.4541   C.3       1 1      0.0000
    15 CL1     -1.4978  -1.2295  -0.4210   C.3       1 1      0.0000
    16 H16     -1.0844  -1.1954  -1.4362   H         1 1      0.0000
    17 H17     -1.2791  -2.2277  -0.0223   H         1 1      0.0000
    18 CL      -3.0263  -1.0758  -0.5128   C.3       1 1      0.0000
    19 CL2     -3.3608  -0.1506  -1.6685   C.3       1 1      0.0000
    20 H20     -4.3204  -0.4143  -2.1083   H         1 1      0.0000
    21 H21     -3.4146   0.8827  -1.3323   H         1 1      0.0000
    22 H22     -2.6025  -0.2150  -2.4461   H         1 1      0.0000
    23 OL2     -1.0031  -0.4038   1.8365   O.3       1 1      0.0000
    24 H24     -1.9722  -0.3187   2.0146   H         1 1      0.0000
    25 N25     -3.6456  -2.3526  -0.7540   N.3       1 1      0.0000
    26 H26     -3.2584  -2.7128  -1.6262   H         1 1      0.0000
    27 C27     -3.4522  -3.3888   0.2619   C.3       1 1      0.0000
    28 H28     -3.5262  -2.9669   1.2621   H         1 1      0.0000
    29 H29     -4.2054  -4.1680   0.1662   H         1 1      0.0000
    30 H30     -2.4722  -3.8503   0.1604   H         1 1      0.0000
    31 OL1     -3.5117  -0.4611   0.6748   O.3       1 1      0.0000
    32 H32     -4.4906  -0.3391   0.6052   H         1 1      0.0000
    33 CL4     -1.1443   1.2628   0.0753   C.2       1 1      0.0000
    34 C34     -1.8501   3.3681   0.9096   C.3       1 1      0.0000
    35 H35     -2.4245   3.4493  -0.0215   H         1 1      0.0000
    36 H36     -2.4869   3.7282   1.7270   H         1 1      0.0000
    37 OL3     -1.1534   1.6730  -1.0526   O.2       1 1      0.0000
    38 OL4     -1.4634   1.9819   1.1445   O.3       1 1      0.0000
    39 C39     -0.6178   4.1832   0.8236   C.3       1 1      0.0000
    40 H40      0.0156   3.8399   0.0082   H         1 1      0.0000
    41 H41     -0.8589   5.2295   0.6481   H         1 1      0.0000
    42 H42     -0.0466   4.1173   1.7472   H         1 1      0.0000
@<TRIPOS>BOND
     1     1     2   ar
     2     1     6   ar
     3     1    11    1
     4     2     3   ar
     5     2     7    1
     6     3     4   ar
     7     3     8    1
     8     4     5   ar
     9     4    14    1
    10     5     6   ar
    11     5     9    1
    12     6    10    1
    13    11    12    2
    14    11    13    2
    15    14    15    1
    16    14    23    1
    17    14    33    1
    18    15    16    1
    19    15    17    1
    20    15    18    1
    21    18    19    1
    22    18    25    1
    23    18    31    1
    24    19    20    1
    25    19    21    1
    26    19    22    1
    27    23    24    1
    28    25    26    1
    29    25    27    1
    30    27    28    1
    31    27    29    1
    32    27    30    1
    33    31    32    1
    34    33    37    2
    35    33    38    1
    36    34    35    1
    37    34    36    1
    38    34    38    1
    39    34    39    1
    40    39    40    1
    41    39    41    1
    42    39    42    1
@<TRIPOS>SUBSTRUCTURE
     1 1           1 GROUP             0 ****  ****    0  
@<TRIPOS>MOLECULE
Molecule Name_00362
    42    42     1     0     0
SMALL
NO_CHARGES
****
Generated from the CSD

@<TRIPOS>ATOM
     1 C1       3.6788  -0.4561  -0.1298   C.ar      1 1      0.0000
     2 C2       3.1810  -0.6932   1.1322   C.ar      1 1      0.0000
     3 C3       1.8157  -0.6006   1.3328   C.ar      1 1      0.0000
     4 C4       0.9506  -0.2737   0.2945   C.ar      1 1      0.0000
     5 C5       1.4957  -0.0459  -0.9642   C.ar      1 1      0.0000
     6 C6       2.8578  -0.1332  -1.1874   C.ar      1 1      0.0000
     7 H7       3.8456  -0.9473   1.9513   H         1 1      0.0000
     8 H8       1.4164  -0.7887   2.3234   H         1 1      0.0000
     9 H9       0.8421   0.2056  -1.7928   H         1 1      0.0000
    10 H10      3.2707   0.0486  -2.1742   H         1 1      0.0000
    11 N11      5.1263  -0.5504  -0.3543   N.pl3     1 1      0.0000
    12 O12      5.5522  -0.3373  -1.4788   O.2       1 1      0.0000
    13 O13      5.8409  -0.8378   0.5934   O.2       1 1      0.0000
    14 CL3     -0.5570  -0.1625   0.5264   C.3       1 1      0.0000
    15 CL1     -1.3222  -1.2303  -0.3057   C.3       1 1      0.0000
    16 H16     -0.9169  -1.2378  -1.3247   H         1 1      0.0000
    17 H17     -1.1148  -2.2173   0.1259   H         1 1      0.0000
    18 CL      -2.8490  -1.0570  -0.3908   C.3       1 1      0.0000
    19 CL2     -3.1803  -0.1779  -1.5828   C.3       1 1      0.0000
    20 H20     -3.9114  -0.6614  -2.2272   H         1 1      0.0000
    21 H21     -3.5932   0.7744  -1.2567   H         1 1      0.0000
    22 H22     -2.2888   0.0236  -2.1730   H         1 1      0.0000
    23 OL2     -0.7969  -0.3339   1.9176   O.3       1 1      0.0000
    24 H24     -1.7631  -0.2279   2.1001   H         1 1      0.0000
    25 N25     -3.4898  -2.3333  -0.5706   N.3       1 1      0.0000
    26 H26     -3.2194  -2.9179   0.2203   H         1 1      0.0000
    27 C27     -4.9525  -2.3413  -0.6300   C.3       1 1      0.0000
    28 H28     -5.3013  -1.9776  -1.5943   H         1 1      0.0000
    29 H29     -5.3387  -3.3485  -0.4878   H         1 1      0.0000
    30 H30     -5.3735  -1.7043   0.1450   H         1 1      0.0000
    31 OL1     -3.3138  -0.3839   0.7731   O.3       1 1      0.0000
    32 H32     -4.2661  -0.1442   0.6559   H         1 1      0.0000
    33 CL4     -0.9275   1.2722   0.1001   C.2       1 1      0.0000
    34 C34     -1.5984   3.4148   0.8652   C.3       1 1      0.0000
    35 H35     -1.4032   4.0448   1.7418   H         1 1      0.0000
    36 H36     -0.9997   3.8058   0.0333   H         1 1      0.0000
    37 OL3     -0.9373   1.6434  -1.0411   O.2       1 1      0.0000
    38 OL4     -1.2301   2.0321   1.1457   O.3       1 1      0.0000
    39 C39     -3.0373   3.4487   0.5206   C.3       1 1      0.0000
    40 H40     -3.6402   3.0726   1.3445   H         1 1      0.0000
    41 H41     -3.3579   4.4653   0.3026   H         1 1      0.0000
    42 H42     -3.2388   2.8348  -0.3548   H         1 1      0.0000
@<TRIPOS>BOND
     1     1     2   ar
     2     1     6   ar
     3     1    11    1
     4     2     3   ar
     5     2     7    1
     6     3     4   ar
     7     3     8    1
     8     4     5   ar
     9     4    14    1
    10     5     6   ar
    11     5     9    1
    12     6    10    1
    13    11    12    2
    14    11    13    2
    15    14    15    1
    16    14    23    1
    17    14    33    1
    18    15    16    1
    19    15    17    1
    20    15    18    1
    21    18    19    1
    22    18    25    1
    23    18    31    1
    24    19    20    1
    25    19    21    1
    26    19    22    1
    27    23    24    1
    28    25    26    1
    29    25    27    1
    30    27    28    1
    31    27    29    1
    32    27    30    1
    33    31    32    1
    34    33    37    2
    35    33    38    1
    36    34    35    1
    37    34    36    1
    38    34    38    1
    39    34    39    1
    40    39    40    1
    41    39    41    1
    42    39    42    1
@<TRIPOS>SUBSTRUCTURE
     1 1           1 GROUP             0 ****  ****    0  
@<TRIPOS>MOLECULE
Molecule Name_00363
    42    42     1     0     0
SMALL
NO_CHARGES
****
Generated from the CSD

@<TRIPOS>ATOM
     1 C1       3.5774  -0.5466  -0.1208   C.ar      1 1      0.0000
     2 C2       3.0990  -0.6952   1.1620   C.ar      1 1      0.0000
     3 C3       1.7421  -0.5449   1.3834   C.ar      1 1      0.0000
     4 C4       0.8664  -0.2476   0.3451   C.ar      1 1      0.0000
     5 C5       1.3918  -0.1097  -0.9348   C.ar      1 1      0.0000
     6 C6       2.7453  -0.2559  -1.1790   C.ar      1 1      0.0000
     7 H7       3.7721  -0.9254   1.9813   H         1 1      0.0000
     8 H8       1.3580  -0.6632   2.3907   H         1 1      0.0000
     9 H9       0.7294   0.1170  -1.7635   H         1 1      0.0000
    10 H10      3.1428  -0.1441  -2.1823   H         1 1      0.0000
    11 N11      5.0160  -0.7028  -0.3675   N.pl3     1 1      0.0000
    12 O12      5.4246  -0.5680  -1.5103   O.2       1 1      0.0000
    13 O13      5.7406  -0.9606   0.5810   O.2       1 1      0.0000
    14 CL3     -0.6314  -0.0720   0.5995   C.3       1 1      0.0000
    15 CL1     -1.4490  -1.1588  -0.1548   C.3       1 1      0.0000
    16 H16     -1.0657  -1.2384  -1.1792   H         1 1      0.0000
    17 H17     -1.2653  -2.1261   0.3291   H         1 1      0.0000
    18 CL      -2.9706  -0.9385  -0.2205   C.3       1 1      0.0000
    19 CL2     -3.2966  -0.1090  -1.4489   C.3       1 1      0.0000
    20 H20     -4.2814  -0.3629  -1.8355   H         1 1      0.0000
    21 H21     -3.2895   0.9526  -1.2105   H         1 1      0.0000
    22 H22     -2.5675  -0.2842  -2.2372   H         1 1      0.0000
    23 OL2     -0.8471  -0.1557   2.0027   O.3       1 1      0.0000
    24 H24     -1.8052  -0.0067   2.1974   H         1 1      0.0000
    25 N25     -3.6564  -2.1997  -0.3241   N.3       1 1      0.0000
    26 H26     -4.6555  -1.9957  -0.3502   H         1 1      0.0000
    27 C27     -3.3564  -3.0265  -1.4943   C.3       1 1      0.0000
    28 H28     -2.2991  -3.2814  -1.5257   H         1 1      0.0000
    29 H29     -3.9275  -3.9522  -1.4692   H         1 1      0.0000
    30 H30     -3.6054  -2.4995  -2.4130   H         1 1      0.0000
    31 OL1     -3.3897  -0.1930   0.9164   O.3       1 1      0.0000
    32 H32     -4.3635  -0.0294   0.8614   H         1 1      0.0000
    33 CL4     -0.9636   1.3478   0.0986   C.2       1 1      0.0000
    34 C34     -1.5435   3.5530   0.7521   C.3       1 1      0.0000
    35 H35     -1.3064   4.2251   1.5860   H         1 1      0.0000
    36 H36     -0.9520   3.8744  -0.1141   H         1 1      0.0000
    37 OL3     -0.9882   1.6530  -1.0618   O.2       1 1      0.0000
    38 OL4     -1.2154   2.1766   1.1045   O.3       1 1      0.0000
    39 C39     -2.9883   3.6174   0.4377   C.3       1 1      0.0000
    40 H40     -3.5837   3.3105   1.2951   H         1 1      0.0000
    41 H41     -3.2796   4.6304   0.1679   H         1 1      0.0000
    42 H42     -3.2312   2.9616  -0.3958   H         1 1      0.0000
@<TRIPOS>BOND
     1     1     2   ar
     2     1     6   ar
     3     1    11    1
     4     2     3   ar
     5     2     7    1
     6     3     4   ar
     7     3     8    1
     8     4     5   ar
     9     4    14    1
    10     5     6   ar
    11     5     9    1
    12     6    10    1
    13    11    12    2
    14    11    13    2
    15    14    15    1
    16    14    23    1
    17    14    33    1
    18    15    16    1
    19    15    17    1
    20    15    18    1
    21    18    19    1
    22    18    25    1
    23    18    31    1
    24    19    20    1
    25    19    21    1
    26    19    22    1
    27    23    24    1
    28    25    26    1
    29    25    27    1
    30    27    28    1
    31    27    29    1
    32    27    30    1
    33    31    32    1
    34    33    37    2
    35    33    38    1
    36    34    35    1
    37    34    36    1
    38    34    38    1
    39    34    39    1
    40    39    40    1
    41    39    41    1
    42    39    42    1
@<TRIPOS>SUBSTRUCTURE
     1 1           1 GROUP             0 ****  ****    0  
@<TRIPOS>MOLECULE
Molecule Name_00364
    42    42     1     0     0
SMALL
NO_CHARGES
****
Generated from the CSD

@<TRIPOS>ATOM
     1 C1       3.5903  -0.5240  -0.1492   C.ar      1 1      0.0000
     2 C2       3.0622  -0.8180   1.0883   C.ar      1 1      0.0000
     3 C3       1.6976  -0.6883   1.2727   C.ar      1 1      0.0000
     4 C4       0.8631  -0.2689   0.2427   C.ar      1 1      0.0000
     5 C5       1.4381   0.0139  -0.9913   C.ar      1 1      0.0000
     6 C6       2.8001  -0.1090  -1.1980   C.ar      1 1      0.0000
     7 H7       3.7027  -1.1445   1.9009   H         1 1      0.0000
     8 H8       1.2744  -0.9208   2.2439   H         1 1      0.0000
     9 H9       0.8085   0.3379  -1.8132   H         1 1      0.0000
    10 H10      3.2365   0.1165  -2.1654   H         1 1      0.0000
    11 N11      5.0374  -0.6569  -0.3563   N.pl3     1 1      0.0000
    12 O12      5.4903  -0.3924  -1.4591   O.2       1 1      0.0000
    13 O13      5.7244  -1.0260   0.5833   O.2       1 1      0.0000
    14 CL3     -0.6436  -0.1174   0.4574   C.3       1 1      0.0000
    15 CL1     -1.4309  -1.1059  -0.4489   C.3       1 1      0.0000
    16 H16     -1.0079  -1.0679  -1.4600   H         1 1      0.0000
    17 H17     -1.2661  -2.1235  -0.0737   H         1 1      0.0000
    18 CL      -2.9488  -0.8727  -0.5476   C.3       1 1      0.0000
    19 CL2     -3.2266   0.0964  -1.6822   C.3       1 1      0.0000
    20 H20     -4.1946  -0.1074  -2.1352   H         1 1      0.0000
    21 H21     -3.2309   1.1225  -1.3206   H         1 1      0.0000
    22 H22     -2.4660   0.0128  -2.4557   H         1 1      0.0000
    23 OL2     -0.9139  -0.3622   1.8320   O.3       1 1      0.0000
    24 H24     -1.8789  -0.2325   2.0053   H         1 1      0.0000
    25 N25     -3.6298  -2.1101  -0.8250   N.3       1 1      0.0000
    26 H26     -3.2541  -2.4680  -1.7031   H         1 1      0.0000
    27 C27     -3.4974  -3.1795   0.1660   C.3       1 1      0.0000
    28 H28     -3.5583  -2.7792   1.1759   H         1 1      0.0000
    29 H29     -4.2882  -3.9170   0.0455   H         1 1      0.0000
    30 H30     -2.5412  -3.6875   0.0599   H         1 1      0.0000
    31 OL1     -3.4124  -0.2636   0.6515   O.3       1 1      0.0000
    32 H32     -4.3833  -0.0905   0.5781   H         1 1      0.0000
    33 CL4     -0.9560   1.3523   0.1120   C.2       1 1      0.0000
    34 C34     -1.5616   3.4695   0.9937   C.3       1 1      0.0000
    35 H35     -1.3575   4.0394   1.9085   H         1 1      0.0000
    36 H36     -0.9366   3.8864   0.1943   H         1 1      0.0000
    37 OL3     -0.9351   1.7901  -1.0053   O.2       1 1      0.0000
    38 OL4     -1.2473   2.0601   1.1966   O.3       1 1      0.0000
    39 C39     -2.9930   3.5761   0.6327   C.3       1 1      0.0000
    40 H40     -3.6214   3.1745   1.4248   H         1 1      0.0000
    41 H41     -3.2736   4.6148   0.4711   H         1 1      0.0000
    42 H42     -3.2028   3.0224  -0.2801   H         1 1      0.0000
@<TRIPOS>BOND
     1     1     2   ar
     2     1     6   ar
     3     1    11    1
     4     2     3   ar
     5     2     7    1
     6     3     4   ar
     7     3     8    1
     8     4     5   ar
     9     4    14    1
    10     5     6   ar
    11     5     9    1
    12     6    10    1
    13    11    12    2
    14    11    13    2
    15    14    15    1
    16    14    23    1
    17    14    33    1
    18    15    16    1
    19    15    17    1
    20    15    18    1
    21    18    19    1
    22    18    25    1
    23    18    31    1
    24    19    20    1
    25    19    21    1
    26    19    22    1
    27    23    24    1
    28    25    26    1
    29    25    27    1
    30    27    28    1
    31    27    29    1
    32    27    30    1
    33    31    32    1
    34    33    37    2
    35    33    38    1
    36    34    35    1
    37    34    36    1
    38    34    38    1
    39    34    39    1
    40    39    40    1
    41    39    41    1
    42    39    42    1
@<TRIPOS>SUBSTRUCTURE
     1 1           1 GROUP             0 ****  ****    0  
@<TRIPOS>MOLECULE
Molecule Name_00365
    42    42     1     0     0
SMALL
NO_CHARGES
****
Generated from the CSD

@<TRIPOS>ATOM
     1 C1       3.4249  -0.2922  -0.1422   C.ar      1 1      0.0000
     2 C2       2.9379   0.4925   0.8794   C.ar      1 1      0.0000
     3 C3       1.5821   0.4584   1.1507   C.ar      1 1      0.0000
     4 C4       0.7154  -0.3432   0.4162   C.ar      1 1      0.0000
     5 C5       1.2504  -1.1221  -0.6038   C.ar      1 1      0.0000
     6 C6       2.6029  -1.1035  -0.8923   C.ar      1 1      0.0000
     7 H7       3.6033   1.1239   1.4589   H         1 1      0.0000
     8 H8       1.1919   1.0717   1.9556   H         1 1      0.0000
     9 H9       0.5967  -1.7604  -1.1886   H         1 1      0.0000
    10 H10      3.0076  -1.7149  -1.6921   H         1 1      0.0000
    11 N11      4.8620  -0.2632  -0.4400   N.pl3     1 1      0.0000
    12 O12      5.5311   0.6452   0.0273   O.2       1 1      0.0000
    13 O13      5.3250  -1.1488  -1.1419   O.2       1 1      0.0000
    14 CL3     -0.7843  -0.3675   0.7151   C.3       1 1      0.0000
    15 CL1     -1.5633  -1.0690  -0.4336   C.3       1 1      0.0000
    16 H16     -1.3204  -0.5688  -1.3788   H         1 1      0.0000
    17 H17     -1.1991  -2.1004  -0.5173   H         1 1      0.0000
    18 CL      -3.0944  -1.1132  -0.2859   C.3       1 1      0.0000
    19 CL2     -3.6836   0.1572  -0.8710   C.3       1 1      0.0000
    20 H20     -4.7471   0.0352  -1.0653   H         1 1      0.0000
    21 H21     -3.5580   0.9922  -0.1849   H         1 1      0.0000
    22 H22     -3.1948   0.4127  -1.8088   H         1 1      0.0000
    23 OL2     -0.9712  -1.0512   1.9480   O.3       1 1      0.0000
    24 H24     -1.9316  -1.0471   2.1838   H         1 1      0.0000
    25 N25     -3.6352  -2.2401  -0.9997   N.3       1 1      0.0000
    26 H26     -4.6451  -2.2279  -0.8570   H         1 1      0.0000
    27 C27     -3.4064  -2.2848  -2.4450   C.3       1 1      0.0000
    28 H28     -2.3413  -2.3002  -2.6665   H         1 1      0.0000
    29 H29     -3.8558  -3.1754  -2.8793   H         1 1      0.0000
    30 H30     -3.8413  -1.4141  -2.9314   H         1 1      0.0000
    31 OL1     -3.4355  -1.1404   1.0949   O.3       1 1      0.0000
    32 H32     -4.4198  -1.1431   1.1904   H         1 1      0.0000
    33 CL4     -1.1912   1.1120   0.8655   C.2       1 1      0.0000
    34 C34     -1.3388   3.2085  -0.2342   C.3       1 1      0.0000
    35 H35     -1.5550   3.5618  -1.2501   H         1 1      0.0000
    36 H36     -2.2382   3.3682   0.3732   H         1 1      0.0000
    37 OL3     -1.6348   1.5783   1.8785   O.2       1 1      0.0000
    38 OL4     -0.9895   1.7929  -0.2560   O.3       1 1      0.0000
    39 C39     -0.1965   3.9573   0.3358   C.3       1 1      0.0000
    40 H40      0.6981   3.8134  -0.2664   H         1 1      0.0000
    41 H41     -0.4132   5.0229   0.3717   H         1 1      0.0000
    42 H42      0.0186   3.6209   1.3479   H         1 1      0.0000
@<TRIPOS>BOND
     1     1     2   ar
     2     1     6   ar
     3     1    11    1
     4     2     3   ar
     5     2     7    1
     6     3     4   ar
     7     3     8    1
     8     4     5   ar
     9     4    14    1
    10     5     6   ar
    11     5     9    1
    12     6    10    1
    13    11    12    2
    14    11    13    2
    15    14    15    1
    16    14    23    1
    17    14    33    1
    18    15    16    1
    19    15    17    1
    20    15    18    1
    21    18    19    1
    22    18    25    1
    23    18    31    1
    24    19    20    1
    25    19    21    1
    26    19    22    1
    27    23    24    1
    28    25    26    1
    29    25    27    1
    30    27    28    1
    31    27    29    1
    32    27    30    1
    33    31    32    1
    34    33    37    2
    35    33    38    1
    36    34    35    1
    37    34    36    1
    38    34    38    1
    39    34    39    1
    40    39    40    1
    41    39    41    1
    42    39    42    1
@<TRIPOS>SUBSTRUCTURE
     1 1           1 GROUP             0 ****  ****    0  
@<TRIPOS>MOLECULE
Molecule Name_00366
    42    42     1     0     0
SMALL
NO_CHARGES
****
Generated from the CSD

@<TRIPOS>ATOM
     1 C1       3.4154  -0.2870  -0.1661   C.ar      1 1      0.0000
     2 C2       2.9181   0.4105   0.9122   C.ar      1 1      0.0000
     3 C3       1.5552   0.3831   1.1460   C.ar      1 1      0.0000
     4 C4       0.6915  -0.3260   0.3186   C.ar      1 1      0.0000
     5 C5       1.2369  -1.0189  -0.7565   C.ar      1 1      0.0000
     6 C6       2.5967  -1.0054  -1.0088   C.ar      1 1      0.0000
     7 H7       3.5812   0.9693   1.5644   H         1 1      0.0000
     8 H8       1.1568   0.9278   1.9950   H         1 1      0.0000
     9 H9       0.5855  -1.5845  -1.4144   H         1 1      0.0000
    10 H10      3.0093  -1.5490  -1.8523   H         1 1      0.0000
    11 N11      4.8602  -0.2642  -0.4247   N.pl3     1 1      0.0000
    12 O12      5.5357   0.5808   0.1418   O.2       1 1      0.0000
    13 O13      5.3228  -1.0911  -1.1950   O.2       1 1      0.0000
    14 CL3     -0.8157  -0.3427   0.5771   C.3       1 1      0.0000
    15 CL1     -1.5786  -0.9159  -0.6508   C.3       1 1      0.0000
    16 H16     -1.3004  -0.3356  -1.5389   H         1 1      0.0000
    17 H17     -1.2340  -1.9432  -0.8220   H         1 1      0.0000
    18 CL      -3.1137  -0.9379  -0.5453   C.3       1 1      0.0000
    19 CL2     -3.6602   0.3964  -1.0191   C.3       1 1      0.0000
    20 H20     -4.7202   0.3183  -1.2515   H         1 1      0.0000
    21 H21     -3.5367   1.1580  -0.2520   H         1 1      0.0000
    22 H22     -3.1405   0.7299  -1.9148   H         1 1      0.0000
    23 OL2     -1.0496  -1.1336   1.7357   O.3       1 1      0.0000
    24 H24     -2.0157  -1.1289   1.9473   H         1 1      0.0000
    25 N25     -3.6592  -1.9780  -1.3775   N.3       1 1      0.0000
    26 H26     -3.3588  -1.7849  -2.3330   H         1 1      0.0000
    27 C27     -3.2606  -3.3530  -1.0718   C.3       1 1      0.0000
    28 H28     -3.1252  -3.4862  -0.0005   H         1 1      0.0000
    29 H29     -4.0181  -4.0580  -1.4079   H         1 1      0.0000
    30 H30     -2.3234  -3.6017  -1.5653   H         1 1      0.0000
    31 OL1     -3.4916  -1.0895   0.8178   O.3       1 1      0.0000
    32 H32     -4.4780  -1.0781   0.8886   H         1 1      0.0000
    33 CL4     -1.1952   1.1255   0.8554   C.2       1 1      0.0000
    34 C34     -1.2692   3.3181  -0.0464   C.3       1 1      0.0000
    35 H35     -1.4509   3.7694  -1.0297   H         1 1      0.0000
    36 H36     -2.1808   3.4417   0.5511   H         1 1      0.0000
    37 OL3     -1.6555   1.5058   1.8965   O.2       1 1      0.0000
    38 OL4     -0.9495   1.9029  -0.1922   O.3       1 1      0.0000
    39 C39     -0.1269   3.9835   0.6190   C.3       1 1      0.0000
    40 H40      0.7802   3.8753   0.0279   H         1 1      0.0000
    41 H41     -0.3219   5.0460   0.7492   H         1 1      0.0000
    42 H42      0.0542   3.5494   1.6001   H         1 1      0.0000
@<TRIPOS>BOND
     1     1     2   ar
     2     1     6   ar
     3     1    11    1
     4     2     3   ar
     5     2     7    1
     6     3     4   ar
     7     3     8    1
     8     4     5   ar
     9     4    14    1
    10     5     6   ar
    11     5     9    1
    12     6    10    1
    13    11    12    2
    14    11    13    2
    15    14    15    1
    16    14    23    1
    17    14    33    1
    18    15    16    1
    19    15    17    1
    20    15    18    1
    21    18    19    1
    22    18    25    1
    23    18    31    1
    24    19    20    1
    25    19    21    1
    26    19    22    1
    27    23    24    1
    28    25    26    1
    29    25    27    1
    30    27    28    1
    31    27    29    1
    32    27    30    1
    33    31    32    1
    34    33    37    2
    35    33    38    1
    36    34    35    1
    37    34    36    1
    38    34    38    1
    39    34    39    1
    40    39    40    1
    41    39    41    1
    42    39    42    1
@<TRIPOS>SUBSTRUCTURE
     1 1           1 GROUP             0 ****  ****    0  
@<TRIPOS>MOLECULE
Molecule Name_00367
    42    42     1     0     0
SMALL
NO_CHARGES
****
Generated from the CSD

@<TRIPOS>ATOM
     1 C1       3.0926  -0.7001  -0.3692   C.ar      1 1      0.0000
     2 C2       2.4767   0.1623  -1.2488   C.ar      1 1      0.0000
     3 C3       1.1745   0.5508  -0.9915   C.ar      1 1      0.0000
     4 C4       0.4867   0.0884   0.1249   C.ar      1 1      0.0000
     5 C5       1.1480  -0.7779   0.9883   C.ar      1 1      0.0000
     6 C6       2.4499  -1.1795   0.7506   C.ar      1 1      0.0000
     7 H7       3.0018   0.5290  -2.1246   H         1 1      0.0000
     8 H8       0.6841   1.2319  -1.6785   H         1 1      0.0000
     9 H9       0.6357  -1.1493   1.8696   H         1 1      0.0000
    10 H10      2.9541  -1.8573   1.4315   H         1 1      0.0000
    11 N11      4.4741  -1.1203  -0.6327   N.pl3     1 1      0.0000
    12 O12      5.0063  -1.8852   0.1566   O.2       1 1      0.0000
    13 O13      5.0303  -0.6864  -1.6295   O.2       1 1      0.0000
    14 CL3     -0.9568   0.5140   0.3969   C.3       1 1      0.0000
    15 CL1     -1.8995   0.0198  -0.7369   C.3       1 1      0.0000
    16 H16     -2.8942   0.4544  -0.5807   H         1 1      0.0000
    17 H17     -1.5271   0.4134  -1.6908   H         1 1      0.0000
    18 CL      -2.0513  -1.5053  -0.8756   C.3       1 1      0.0000
    19 CL2     -0.7212  -2.0967  -1.3052   C.3       1 1      0.0000
    20 H20     -0.8729  -2.9871  -1.9118   H         1 1      0.0000
    21 H21     -0.1519  -1.3794  -1.8927   H         1 1      0.0000
    22 H22     -0.1247  -2.3744  -0.4387   H         1 1      0.0000
    23 OL2     -1.3419  -0.0317   1.6525   O.3       1 1      0.0000
    24 H24     -2.1865   0.3892   1.9486   H         1 1      0.0000
    25 N25     -2.4263  -2.0892   0.3855   N.3       1 1      0.0000
    26 H26     -2.5320  -1.3228   1.0502   H         1 1      0.0000
    27 C27     -3.6701  -2.8606   0.4183   C.3       1 1      0.0000
    28 H28     -3.6221  -3.6992  -0.2732   H         1 1      0.0000
    29 H29     -3.8537  -3.2539   1.4159   H         1 1      0.0000
    30 H30     -4.5174  -2.2382   0.1380   H         1 1      0.0000
    31 OL1     -2.9937  -1.7951  -1.9011   O.3       1 1      0.0000
    32 H32     -2.9955  -2.7677  -2.0805   H         1 1      0.0000
    33 CL4     -0.9163   2.0529   0.4808   C.2       1 1      0.0000
    34 C34     -1.3802   3.8934   1.9034   C.3       1 1      0.0000
    35 H35     -1.0652   4.2324   2.8980   H         1 1      0.0000
    36 H36     -0.8446   4.4966   1.1601   H         1 1      0.0000
    37 OL3     -0.7683   2.7656  -0.4735   O.2       1 1      0.0000
    38 OL4     -1.0647   2.4805   1.7287   O.3       1 1      0.0000
    39 C39     -2.8417   4.0634   1.7437   C.3       1 1      0.0000
    40 H40     -3.3815   3.4768   2.4841   H         1 1      0.0000
    41 H41     -3.1243   5.1069   1.8665   H         1 1      0.0000
    42 H42     -3.1620   3.7395   0.7556   H         1 1      0.0000
@<TRIPOS>BOND
     1     1     2   ar
     2     1     6   ar
     3     1    11    1
     4     2     3   ar
     5     2     7    1
     6     3     4   ar
     7     3     8    1
     8     4     5   ar
     9     4    14    1
    10     5     6   ar
    11     5     9    1
    12     6    10    1
    13    11    12    2
    14    11    13    2
    15    14    15    1
    16    14    23    1
    17    14    33    1
    18    15    16    1
    19    15    17    1
    20    15    18    1
    21    18    19    1
    22    18    25    1
    23    18    31    1
    24    19    20    1
    25    19    21    1
    26    19    22    1
    27    23    24    1
    28    25    26    1
    29    25    27    1
    30    27    28    1
    31    27    29    1
    32    27    30    1
    33    31    32    1
    34    33    37    2
    35    33    38    1
    36    34    35    1
    37    34    36    1
    38    34    38    1
    39    34    39    1
    40    39    40    1
    41    39    41    1
    42    39    42    1
@<TRIPOS>SUBSTRUCTURE
     1 1           1 GROUP             0 ****  ****    0  
@<TRIPOS>MOLECULE
Molecule Name_00368
    42    42     1     0     0
SMALL
NO_CHARGES
****
Generated from the CSD

@<TRIPOS>ATOM
     1 C1       2.8281  -0.6014  -0.2270   C.ar      1 1      0.0000
     2 C2       1.9449  -0.5089  -1.2796   C.ar      1 1      0.0000
     3 C3       0.6357  -0.1501  -1.0148   C.ar      1 1      0.0000
     4 C4       0.2034   0.1124   0.2804   C.ar      1 1      0.0000
     5 C5       1.1294   0.0105   1.3126   C.ar      1 1      0.0000
     6 C6       2.4435  -0.3465   1.0706   C.ar      1 1      0.0000
     7 H7       2.2692  -0.7129  -2.2947   H         1 1      0.0000
     8 H8      -0.0647  -0.0726  -1.8392   H         1 1      0.0000
     9 H9       0.8192   0.2152   2.3318   H         1 1      0.0000
    10 H10      3.1558  -0.4241   1.8853   H         1 1      0.0000
    11 N11      4.2200  -0.9825  -0.4959   N.pl3     1 1      0.0000
    12 O12      4.9908  -1.0602   0.4480   O.2       1 1      0.0000
    13 O13      4.5455  -1.2050  -1.6516   O.2       1 1      0.0000
    14 CL3     -1.2486   0.4980   0.5667   C.3       1 1      0.0000
    15 CL1     -2.2167  -0.2531  -0.3909   C.3       1 1      0.0000
    16 H16     -3.2416   0.0781  -0.1845   H         1 1      0.0000
    17 H17     -1.9866   0.0487  -1.4201   H         1 1      0.0000
    18 CL      -2.1794  -1.7901  -0.3237   C.3       1 1      0.0000
    19 CL2     -3.5779  -2.3287  -0.5636   C.3       1 1      0.0000
    20 H20     -3.5844  -3.4160  -0.5245   H         1 1      0.0000
    21 H21     -4.2686  -1.9583   0.1911   H         1 1      0.0000
    22 H22     -3.9470  -2.0224  -1.5402   H         1 1      0.0000
    23 OL2     -1.5246   0.1762   1.9242   O.3       1 1      0.0000
    24 H24     -2.4481   0.4520   2.1461   H         1 1      0.0000
    25 N25     -1.3055  -2.3158  -1.3395   N.3       1 1      0.0000
    26 H26     -0.5848  -2.8578  -0.8628   H         1 1      0.0000
    27 C27     -1.9065  -3.1926  -2.3461   C.3       1 1      0.0000
    28 H28     -2.6935  -2.6736  -2.8892   H         1 1      0.0000
    29 H29     -1.1597  -3.5230  -3.0651   H         1 1      0.0000
    30 H30     -2.3412  -4.0742  -1.8796   H         1 1      0.0000
    31 OL1     -1.7880  -2.1968   0.9821   O.3       1 1      0.0000
    32 H32     -1.7887  -3.1845   1.0328   H         1 1      0.0000
    33 CL4     -1.3096   2.0252   0.3637   C.2       1 1      0.0000
    34 C34     -1.1456   4.1359   1.4334   C.3       1 1      0.0000
    35 H35     -1.9071   4.4641   0.7152   H         1 1      0.0000
    36 H36     -1.4076   4.5553   2.4127   H         1 1      0.0000
    37 OL3     -1.5133   2.5456  -0.6984   O.2       1 1      0.0000
    38 OL4     -1.1104   2.6797   1.5013   O.3       1 1      0.0000
    39 C39      0.1919   4.6112   1.0143   C.3       1 1      0.0000
    40 H40      0.4560   4.2087   0.0386   H         1 1      0.0000
    41 H41      0.2126   5.6971   0.9499   H         1 1      0.0000
    42 H42      0.9528   4.2994   1.7268   H         1 1      0.0000
@<TRIPOS>BOND
     1     1     2   ar
     2     1     6   ar
     3     1    11    1
     4     2     3   ar
     5     2     7    1
     6     3     4   ar
     7     3     8    1
     8     4     5   ar
     9     4    14    1
    10     5     6   ar
    11     5     9    1
    12     6    10    1
    13    11    12    2
    14    11    13    2
    15    14    15    1
    16    14    23    1
    17    14    33    1
    18    15    16    1
    19    15    17    1
    20    15    18    1
    21    18    19    1
    22    18    25    1
    23    18    31    1
    24    19    20    1
    25    19    21    1
    26    19    22    1
    27    23    24    1
    28    25    26    1
    29    25    27    1
    30    27    28    1
    31    27    29    1
    32    27    30    1
    33    31    32    1
    34    33    37    2
    35    33    38    1
    36    34    35    1
    37    34    36    1
    38    34    38    1
    39    34    39    1
    40    39    40    1
    41    39    41    1
    42    39    42    1
@<TRIPOS>SUBSTRUCTURE
     1 1           1 GROUP             0 ****  ****    0  
@<TRIPOS>MOLECULE
Molecule Name_00369
    42    42     1     0     0
SMALL
NO_CHARGES
****
Generated from the CSD

@<TRIPOS>ATOM
     1 C1       2.9186  -0.7676  -0.1832   C.ar      1 1      0.0000
     2 C2       2.0599  -0.6525  -1.2537   C.ar      1 1      0.0000
     3 C3       0.7692  -0.2130  -1.0218   C.ar      1 1      0.0000
     4 C4       0.3310   0.1075   0.2583   C.ar      1 1      0.0000
     5 C5       1.2323  -0.0200   1.3094   C.ar      1 1      0.0000
     6 C6       2.5276  -0.4574   1.1004   C.ar      1 1      0.0000
     7 H7       2.3889  -0.9011  -2.2573   H         1 1      0.0000
     8 H8       0.0883  -0.1173  -1.8605   H         1 1      0.0000
     9 H9       0.9174   0.2287   2.3173   H         1 1      0.0000
    10 H10      3.2206  -0.5541   1.9296   H         1 1      0.0000
    11 N11      4.2906  -1.2342  -0.4171   N.pl3     1 1      0.0000
    12 O12      5.0399  -1.3310   0.5424   O.2       1 1      0.0000
    13 O13      4.6221  -1.5051  -1.5607   O.2       1 1      0.0000
    14 CL3     -1.1010   0.5824   0.5083   C.3       1 1      0.0000
    15 CL1     -2.0945  -0.1371  -0.4475   C.3       1 1      0.0000
    16 H16     -3.1020   0.2572  -0.2681   H         1 1      0.0000
    17 H17     -1.8303   0.1241  -1.4796   H         1 1      0.0000
    18 CL      -2.1466  -1.6715  -0.3410   C.3       1 1      0.0000
    19 CL2     -3.5695  -2.1357  -0.5926   C.3       1 1      0.0000
    20 H20     -3.6390  -3.2194  -0.5264   H         1 1      0.0000
    21 H21     -4.2502  -1.7070   0.1398   H         1 1      0.0000
    22 H22     -3.9039  -1.8345  -1.5832   H         1 1      0.0000
    23 OL2     -1.4176   0.3125   1.8683   O.3       1 1      0.0000
    24 H24     -2.3274   0.6460   2.0664   H         1 1      0.0000
    25 N25     -1.2874  -2.2725  -1.3272   N.3       1 1      0.0000
    26 H26     -0.6070  -2.8419  -0.8240   H         1 1      0.0000
    27 C27     -1.9208  -3.1396  -2.3222   C.3       1 1      0.0000
    28 H28     -2.6675  -2.5910  -2.8924   H         1 1      0.0000
    29 H29     -1.1823  -3.5307  -3.0189   H         1 1      0.0000
    30 H30     -2.4131  -3.9825  -1.8417   H         1 1      0.0000
    31 OL1     -1.8010  -2.0655   0.9815   O.3       1 1      0.0000
    32 H32     -1.8592  -3.0499   1.0570   H         1 1      0.0000
    33 CL4     -1.0709   2.1048   0.2660   C.2       1 1      0.0000
    34 C34     -0.8040   4.2300   1.2851   C.3       1 1      0.0000
    35 H35     -0.2132   4.6501   2.1084   H         1 1      0.0000
    36 H36     -0.3236   4.5264   0.3444   H         1 1      0.0000
    37 OL3     -1.2266   2.6080  -0.8124   O.2       1 1      0.0000
    38 OL4     -0.8535   2.7765   1.3901   O.3       1 1      0.0000
    39 C39     -2.1909   4.7442   1.3358   C.3       1 1      0.0000
    40 H40     -2.6721   4.4641   2.2705   H         1 1      0.0000
    41 H41     -2.2028   5.8295   1.2604   H         1 1      0.0000
    42 H42     -2.7819   4.3410   0.5162   H         1 1      0.0000
@<TRIPOS>BOND
     1     1     2   ar
     2     1     6   ar
     3     1    11    1
     4     2     3   ar
     5     2     7    1
     6     3     4   ar
     7     3     8    1
     8     4     5   ar
     9     4    14    1
    10     5     6   ar
    11     5     9    1
    12     6    10    1
    13    11    12    2
    14    11    13    2
    15    14    15    1
    16    14    23    1
    17    14    33    1
    18    15    16    1
    19    15    17    1
    20    15    18    1
    21    18    19    1
    22    18    25    1
    23    18    31    1
    24    19    20    1
    25    19    21    1
    26    19    22    1
    27    23    24    1
    28    25    26    1
    29    25    27    1
    30    27    28    1
    31    27    29    1
    32    27    30    1
    33    31    32    1
    34    33    37    2
    35    33    38    1
    36    34    35    1
    37    34    36    1
    38    34    38    1
    39    34    39    1
    40    39    40    1
    41    39    41    1
    42    39    42    1
@<TRIPOS>SUBSTRUCTURE
     1 1           1 GROUP             0 ****  ****    0  
@<TRIPOS>MOLECULE
Molecule Name_00370
    42    42     1     0     0
SMALL
NO_CHARGES
****
Generated from the CSD

@<TRIPOS>ATOM
     1 C1       3.5560  -0.2328  -0.0997   C.ar      1 1      0.0000
     2 C2       2.6638   0.0020  -1.1222   C.ar      1 1      0.0000
     3 C3       1.3101  -0.0756  -0.8496   C.ar      1 1      0.0000
     4 C4       0.8430  -0.3854   0.4229   C.ar      1 1      0.0000
     5 C5       1.7787  -0.6115   1.4262   C.ar      1 1      0.0000
     6 C6       3.1370  -0.5390   1.1760   C.ar      1 1      0.0000
     7 H7       3.0153   0.2429  -2.1200   H         1 1      0.0000
     8 H8       0.6017   0.1108  -1.6494   H         1 1      0.0000
     9 H9       1.4407  -0.8498   2.4292   H         1 1      0.0000
    10 H10      3.8569  -0.7193   1.9676   H         1 1      0.0000
    11 N11      4.9952  -0.1543  -0.3775   N.pl3     1 1      0.0000
    12 O12      5.3555   0.3810  -1.4143   O.2       1 1      0.0000
    13 O13      5.7686  -0.6278   0.4403   O.2       1 1      0.0000
    14 CL3     -0.6553  -0.4801   0.7141   C.3       1 1      0.0000
    15 CL1     -1.4126  -1.1018  -0.4935   C.3       1 1      0.0000
    16 H16     -1.0704  -0.6112  -1.4126   H         1 1      0.0000
    17 H17     -1.1276  -2.1582  -0.5723   H         1 1      0.0000
    18 CL      -2.9487  -1.0237  -0.4432   C.3       1 1      0.0000
    19 CL2     -3.3972   0.2832  -1.0713   C.3       1 1      0.0000
    20 H20     -4.4491   0.2382  -1.3458   H         1 1      0.0000
    21 H21     -3.2631   1.1105  -0.3776   H         1 1      0.0000
    22 H22     -2.8214   0.4971  -1.9693   H         1 1      0.0000
    23 OL2     -0.8221  -1.2738   1.8824   O.3       1 1      0.0000
    24 H24     -1.7823  -1.3188   2.1148   H         1 1      0.0000
    25 N25     -3.5312  -2.1117  -1.1841   N.3       1 1      0.0000
    26 H26     -3.1780  -2.9760  -0.7736   H         1 1      0.0000
    27 C27     -4.9921  -2.2055  -1.1912   C.3       1 1      0.0000
    28 H28     -5.4259  -1.4221  -1.8092   H         1 1      0.0000
    29 H29     -5.3149  -3.1665  -1.5861   H         1 1      0.0000
    30 H30     -5.3901  -2.1020  -0.1839   H         1 1      0.0000
    31 OL1     -3.3772  -1.0097   0.9132   O.3       1 1      0.0000
    32 H32     -4.3527  -0.8507   0.9482   H         1 1      0.0000
    33 CL4     -1.1063   0.9679   0.9915   C.2       1 1      0.0000
    34 C34     -1.3218   3.1455   0.0760   C.3       1 1      0.0000
    35 H35     -2.3879   3.2170   0.3244   H         1 1      0.0000
    36 H36     -0.7570   3.6162   0.8901   H         1 1      0.0000
    37 OL3     -1.5596   1.3319   2.0415   O.2       1 1      0.0000
    38 OL4     -0.9299   1.7483  -0.0677   O.3       1 1      0.0000
    39 C39     -1.0470   3.8362  -1.2038   C.3       1 1      0.0000
    40 H40     -1.6115   3.3826  -2.0159   H         1 1      0.0000
    41 H41     -1.3252   4.8862  -1.1429   H         1 1      0.0000
    42 H42      0.0105   3.7797  -1.4533   H         1 1      0.0000
@<TRIPOS>BOND
     1     1     2   ar
     2     1     6   ar
     3     1    11    1
     4     2     3   ar
     5     2     7    1
     6     3     4   ar
     7     3     8    1
     8     4     5   ar
     9     4    14    1
    10     5     6   ar
    11     5     9    1
    12     6    10    1
    13    11    12    2
    14    11    13    2
    15    14    15    1
    16    14    23    1
    17    14    33    1
    18    15    16    1
    19    15    17    1
    20    15    18    1
    21    18    19    1
    22    18    25    1
    23    18    31    1
    24    19    20    1
    25    19    21    1
    26    19    22    1
    27    23    24    1
    28    25    26    1
    29    25    27    1
    30    27    28    1
    31    27    29    1
    32    27    30    1
    33    31    32    1
    34    33    37    2
    35    33    38    1
    36    34    35    1
    37    34    36    1
    38    34    38    1
    39    34    39    1
    40    39    40    1
    41    39    41    1
    42    39    42    1
@<TRIPOS>SUBSTRUCTURE
     1 1           1 GROUP             0 ****  ****    0  
@<TRIPOS>MOLECULE
Molecule Name_00371
    42    42     1     0     0
SMALL
NO_CHARGES
****
Generated from the CSD

@<TRIPOS>ATOM
     1 C1       2.9614  -0.7011  -0.2324   C.ar      1 1      0.0000
     2 C2       2.1966   0.0095  -1.1305   C.ar      1 1      0.0000
     3 C3       0.8983   0.3346  -0.7817   C.ar      1 1      0.0000
     4 C4       0.3605  -0.0422   0.4439   C.ar      1 1      0.0000
     5 C5       1.1692  -0.7555   1.3217   C.ar      1 1      0.0000
     6 C6       2.4702  -1.0912   0.9937   C.ar      1 1      0.0000
     7 H7       2.6037   0.3079  -2.0909   H         1 1      0.0000
     8 H8       0.2910   0.8964  -1.4830   H         1 1      0.0000
     9 H9       0.7757  -1.0570   2.2867   H         1 1      0.0000
    10 H10      3.0903  -1.6496   1.6871   H         1 1      0.0000
    11 N11      4.3404  -1.0528  -0.5922   N.pl3     1 1      0.0000
    12 O12      4.6755  -0.9548  -1.7624   O.2       1 1      0.0000
    13 O13      5.0916  -1.4279   0.2945   O.2       1 1      0.0000
    14 CL3     -1.0795   0.3116   0.8181   C.3       1 1      0.0000
    15 CL1     -2.0132   0.2010  -0.4206   C.3       1 1      0.0000
    16 H16     -2.9287   0.7712  -0.2219   H         1 1      0.0000
    17 H17     -1.5164   0.6841  -1.2710   H         1 1      0.0000
    18 CL      -2.4101  -1.2239  -0.8452   C.3       1 1      0.0000
    19 CL2     -2.7129  -1.2294  -2.3324   C.3       1 1      0.0000
    20 H20     -3.0088  -2.2232  -2.6620   H         1 1      0.0000
    21 H21     -3.5227  -0.5405  -2.5637   H         1 1      0.0000
    22 H22     -1.8382  -0.9288  -2.9052   H         1 1      0.0000
    23 OL2     -1.4926  -0.5785   1.8475   O.3       1 1      0.0000
    24 H24     -2.4098  -0.3454   2.1350   H         1 1      0.0000
    25 N25     -1.3300  -2.1416  -0.5942   N.3       1 1      0.0000
    26 H26     -1.1533  -2.1280   0.4103   H         1 1      0.0000
    27 C27     -1.5423  -3.5395  -0.9738   C.3       1 1      0.0000
    28 H28     -1.7368  -3.6240  -2.0409   H         1 1      0.0000
    29 H29     -0.6655  -4.1399  -0.7404   H         1 1      0.0000
    30 H30     -2.3924  -3.9592  -0.4400   H         1 1      0.0000
    31 OL1     -3.6031  -1.6034  -0.1695   O.3       1 1      0.0000
    32 H32     -3.8732  -2.5085  -0.4628   H         1 1      0.0000
    33 CL4     -1.0143   1.7528   1.3618   C.2       1 1      0.0000
    34 C34     -1.1886   4.0511   0.8015   C.3       1 1      0.0000
    35 H35     -1.9473   4.2493   1.5686   H         1 1      0.0000
    36 H36     -0.2091   4.2984   1.2291   H         1 1      0.0000
    37 OL3     -0.7972   2.0188   2.5119   O.2       1 1      0.0000
    38 OL4     -1.2264   2.6483   0.4052   O.3       1 1      0.0000
    39 C39     -1.4464   4.8773  -0.3990   C.3       1 1      0.0000
    40 H40     -2.4209   4.6465  -0.8241   H         1 1      0.0000
    41 H41     -1.4276   5.9362  -0.1498   H         1 1      0.0000
    42 H42     -0.6922   4.6953  -1.1618   H         1 1      0.0000
@<TRIPOS>BOND
     1     1     2   ar
     2     1     6   ar
     3     1    11    1
     4     2     3   ar
     5     2     7    1
     6     3     4   ar
     7     3     8    1
     8     4     5   ar
     9     4    14    1
    10     5     6   ar
    11     5     9    1
    12     6    10    1
    13    11    12    2
    14    11    13    2
    15    14    15    1
    16    14    23    1
    17    14    33    1
    18    15    16    1
    19    15    17    1
    20    15    18    1
    21    18    19    1
    22    18    25    1
    23    18    31    1
    24    19    20    1
    25    19    21    1
    26    19    22    1
    27    23    24    1
    28    25    26    1
    29    25    27    1
    30    27    28    1
    31    27    29    1
    32    27    30    1
    33    31    32    1
    34    33    37    2
    35    33    38    1
    36    34    35    1
    37    34    36    1
    38    34    38    1
    39    34    39    1
    40    39    40    1
    41    39    41    1
    42    39    42    1
@<TRIPOS>SUBSTRUCTURE
     1 1           1 GROUP             0 ****  ****    0  
@<TRIPOS>MOLECULE
Molecule Name_00372
    42    42     1     0     0
SMALL
NO_CHARGES
****
Generated from the CSD

@<TRIPOS>ATOM
     1 C1       3.6130  -0.3530  -0.0870   C.ar      1 1      0.0000
     2 C2       2.7681   0.0031  -1.1145   C.ar      1 1      0.0000
     3 C3       1.4053   0.0088  -0.8784   C.ar      1 1      0.0000
     4 C4       0.8828  -0.3372   0.3628   C.ar      1 1      0.0000
     5 C5       1.7724  -0.6866   1.3728   C.ar      1 1      0.0000
     6 C6       3.1387  -0.6990   1.1588   C.ar      1 1      0.0000
     7 H7       3.1629   0.2734  -2.0883   H         1 1      0.0000
     8 H8       0.7341   0.2907  -1.6822   H         1 1      0.0000
     9 H9       1.3910  -0.9557   2.3522   H         1 1      0.0000
    10 H10      3.8220  -0.9753   1.9550   H         1 1      0.0000
    11 N11      5.0612  -0.3637  -0.3264   N.pl3     1 1      0.0000
    12 O12      5.4565  -0.3312  -1.4813   O.2       1 1      0.0000
    13 O13      5.8067  -0.4047   0.6399   O.2       1 1      0.0000
    14 CL3     -0.6259  -0.3391   0.6133   C.3       1 1      0.0000
    15 CL1     -1.3968  -0.7540  -0.6720   C.3       1 1      0.0000
    16 H16     -1.3593   0.0766  -1.3871   H         1 1      0.0000
    17 H17     -0.8673  -1.5959  -1.1349   H         1 1      0.0000
    18 CL      -2.8676  -1.1628  -0.4779   C.3       1 1      0.0000
    19 CL2     -3.4764  -0.3095   0.6197   C.3       1 1      0.0000
    20 H20     -4.5375  -0.5227   0.7302   H         1 1      0.0000
    21 H21     -2.9905  -0.5039   1.5736   H         1 1      0.0000
    22 H22     -3.3651   0.7486   0.3921   H         1 1      0.0000
    23 OL2     -0.8888  -1.2439   1.6786   O.3       1 1      0.0000
    24 H24     -1.0103  -2.1550   1.3135   H         1 1      0.0000
    25 N25     -3.6124  -0.9487  -1.6909   N.3       1 1      0.0000
    26 H26     -3.1687  -1.5106  -2.4174   H         1 1      0.0000
    27 C27     -5.0306  -1.3110  -1.6741   C.3       1 1      0.0000
    28 H28     -5.6300  -0.5037  -1.2585   H         1 1      0.0000
    29 H29     -5.3885  -1.5152  -2.6811   H         1 1      0.0000
    30 H30     -5.1943  -2.2006  -1.0694   H         1 1      0.0000
    31 OL1     -2.9287  -2.5163  -0.0440   O.3       1 1      0.0000
    32 H32     -3.8411  -2.7164   0.2809   H         1 1      0.0000
    33 CL4     -0.9660   1.1005   1.0480   C.2       1 1      0.0000
    34 C34     -1.6280   3.2516   0.2991   C.3       1 1      0.0000
    35 H35     -2.4880   3.2970   0.9787   H         1 1      0.0000
    36 H36     -0.7868   3.7553   0.7912   H         1 1      0.0000
    37 OL3     -0.9405   1.4725   2.1888   O.2       1 1      0.0000
    38 OL4     -1.2860   1.8638   0.0102   O.3       1 1      0.0000
    39 C39     -1.9500   3.9237  -0.9796   C.3       1 1      0.0000
    40 H40     -2.7906   3.4373  -1.4700   H         1 1      0.0000
    41 H41     -2.2124   4.9662  -0.8120   H         1 1      0.0000
    42 H42     -1.0987   3.8930  -1.6565   H         1 1      0.0000
@<TRIPOS>BOND
     1     1     2   ar
     2     1     6   ar
     3     1    11    1
     4     2     3   ar
     5     2     7    1
     6     3     4   ar
     7     3     8    1
     8     4     5   ar
     9     4    14    1
    10     5     6   ar
    11     5     9    1
    12     6    10    1
    13    11    12    2
    14    11    13    2
    15    14    15    1
    16    14    23    1
    17    14    33    1
    18    15    16    1
    19    15    17    1
    20    15    18    1
    21    18    19    1
    22    18    25    1
    23    18    31    1
    24    19    20    1
    25    19    21    1
    26    19    22    1
    27    23    24    1
    28    25    26    1
    29    25    27    1
    30    27    28    1
    31    27    29    1
    32    27    30    1
    33    31    32    1
    34    33    37    2
    35    33    38    1
    36    34    35    1
    37    34    36    1
    38    34    38    1
    39    34    39    1
    40    39    40    1
    41    39    41    1
    42    39    42    1
@<TRIPOS>SUBSTRUCTURE
     1 1           1 GROUP             0 ****  ****    0  
@<TRIPOS>MOLECULE
Molecule Name_00373
    42    42     1     0     0
SMALL
NO_CHARGES
****
Generated from the CSD

@<TRIPOS>ATOM
     1 C1       2.8831  -0.7060  -0.3725   C.ar      1 1      0.0000
     2 C2       2.3970   0.3658  -1.0878   C.ar      1 1      0.0000
     3 C3       1.0937   0.7723  -0.8663   C.ar      1 1      0.0000
     4 C4       0.2776   0.1227   0.0530   C.ar      1 1      0.0000
     5 C5       0.8102  -0.9524   0.7557   C.ar      1 1      0.0000
     6 C6       2.1108  -1.3758   0.5503   C.ar      1 1      0.0000
     7 H7       3.0230   0.8802  -1.8095   H         1 1      0.0000
     8 H8       0.7051   1.6174  -1.4241   H         1 1      0.0000
     9 H9       0.1962  -1.4733   1.4828   H         1 1      0.0000
    10 H10      2.5138  -2.2172   1.1041   H         1 1      0.0000
    11 N11      4.2645  -1.1471  -0.6001   N.pl3     1 1      0.0000
    12 O12      4.8440  -0.7424  -1.5959   O.2       1 1      0.0000
    13 O13      4.7732  -1.8992   0.2164   O.2       1 1      0.0000
    14 CL3     -1.1661   0.5712   0.2846   C.3       1 1      0.0000
    15 CL1     -2.1204  -0.0888  -0.7508   C.3       1 1      0.0000
    16 H16     -3.1332   0.3013  -0.5931   H         1 1      0.0000
    17 H17     -1.8112   0.2270  -1.7548   H         1 1      0.0000
    18 CL      -2.1828  -1.6263  -0.7312   C.3       1 1      0.0000
    19 CL2     -1.1279  -2.1752  -1.6742   C.3       1 1      0.0000
    20 H20     -1.4801  -3.0821  -2.1611   H         1 1      0.0000
    21 H21     -0.8851  -1.4482  -2.4465   H         1 1      0.0000
    22 H22     -0.2141  -2.4135  -1.1339   H         1 1      0.0000
    23 OL2     -1.5265   0.2089   1.6118   O.3       1 1      0.0000
    24 H24     -2.4452   0.5229   1.8002   H         1 1      0.0000
    25 N25     -1.9162  -2.1227   0.5933   N.3       1 1      0.0000
    26 H26     -2.6225  -1.7220   1.2106   H         1 1      0.0000
    27 C27     -1.9557  -3.5740   0.7808   C.3       1 1      0.0000
    28 H28     -1.2205  -4.0650   0.1466   H         1 1      0.0000
    29 H29     -1.7400  -3.8354   1.8147   H         1 1      0.0000
    30 H30     -2.9379  -3.9688   0.5293   H         1 1      0.0000
    31 OL1     -3.4491  -2.0542  -1.2185   O.3       1 1      0.0000
    32 H32     -3.4291  -3.0309  -1.3723   H         1 1      0.0000
    33 CL4     -1.1404   2.1065   0.1455   C.2       1 1      0.0000
    34 C34     -1.1359   4.1648   1.3243   C.3       1 1      0.0000
    35 H35     -0.2334   4.5294   0.8183   H         1 1      0.0000
    36 H36     -2.0046   4.5552   0.7800   H         1 1      0.0000
    37 OL3     -1.1093   2.6765  -0.9102   O.2       1 1      0.0000
    38 OL4     -1.1573   2.7068   1.3294   O.3       1 1      0.0000
    39 C39     -1.1594   4.6319   2.7285   C.3       1 1      0.0000
    40 H40     -0.2953   4.2581   3.2739   H         1 1      0.0000
    41 H41     -1.1445   5.7188   2.7738   H         1 1      0.0000
    42 H42     -2.0568   4.2838   3.2358   H         1 1      0.0000
@<TRIPOS>BOND
     1     1     2   ar
     2     1     6   ar
     3     1    11    1
     4     2     3   ar
     5     2     7    1
     6     3     4   ar
     7     3     8    1
     8     4     5   ar
     9     4    14    1
    10     5     6   ar
    11     5     9    1
    12     6    10    1
    13    11    12    2
    14    11    13    2
    15    14    15    1
    16    14    23    1
    17    14    33    1
    18    15    16    1
    19    15    17    1
    20    15    18    1
    21    18    19    1
    22    18    25    1
    23    18    31    1
    24    19    20    1
    25    19    21    1
    26    19    22    1
    27    23    24    1
    28    25    26    1
    29    25    27    1
    30    27    28    1
    31    27    29    1
    32    27    30    1
    33    31    32    1
    34    33    37    2
    35    33    38    1
    36    34    35    1
    37    34    36    1
    38    34    38    1
    39    34    39    1
    40    39    40    1
    41    39    41    1
    42    39    42    1
@<TRIPOS>SUBSTRUCTURE
     1 1           1 GROUP             0 ****  ****    0  
@<TRIPOS>MOLECULE
Molecule Name_00374
    42    42     1     0     0
SMALL
NO_CHARGES
****
Generated from the CSD

@<TRIPOS>ATOM
     1 C1       3.5722  -0.4820  -0.0385   C.ar      1 1      0.0000
     2 C2       3.0588  -1.0954   1.0826   C.ar      1 1      0.0000
     3 C3       1.7001  -1.0024   1.3237   C.ar      1 1      0.0000
     4 C4       0.8570  -0.3063   0.4646   C.ar      1 1      0.0000
     5 C5       1.4172   0.2948  -0.6571   C.ar      1 1      0.0000
     6 C6       2.7731   0.2143  -0.9177   C.ar      1 1      0.0000
     7 H7       3.7063  -1.6401   1.7619   H         1 1      0.0000
     8 H8       1.2885  -1.4853   2.2032   H         1 1      0.0000
     9 H9       0.7806   0.8395  -1.3463   H         1 1      0.0000
    10 H10      3.1979   0.6894  -1.7959   H         1 1      0.0000
    11 N11      5.0130  -0.5731  -0.3040   N.pl3     1 1      0.0000
    12 O12      5.6621  -1.4071   0.3079   O.2       1 1      0.0000
    13 O13      5.4990   0.1892  -1.1249   O.2       1 1      0.0000
    14 CL3     -0.6428  -0.1986   0.7437   C.3       1 1      0.0000
    15 CL1     -1.4627  -0.9039  -0.3737   C.3       1 1      0.0000
    16 H16     -1.2461  -0.4136  -1.3305   H         1 1      0.0000
    17 H17     -1.1089  -1.9387  -0.4599   H         1 1      0.0000
    18 CL      -2.9887  -0.9351  -0.1776   C.3       1 1      0.0000
    19 CL2     -3.5917   0.3118  -0.7980   C.3       1 1      0.0000
    20 H20     -4.5776   0.1009  -1.2070   H         1 1      0.0000
    21 H21     -3.6944   1.1008  -0.0559   H         1 1      0.0000
    22 H22     -2.9630   0.6843  -1.6040   H         1 1      0.0000
    23 OL2     -0.8933  -0.7935   2.0109   O.3       1 1      0.0000
    24 H24     -1.8528  -0.7024   2.2328   H         1 1      0.0000
    25 N25     -3.5546  -2.0890  -0.8259   N.3       1 1      0.0000
    26 H26     -4.5596  -2.0663  -0.6530   H         1 1      0.0000
    27 C27     -3.3705  -2.1961  -2.2742   C.3       1 1      0.0000
    28 H28     -2.3127  -2.2256  -2.5274   H         1 1      0.0000
    29 H29     -3.8358  -3.1023  -2.6562   H         1 1      0.0000
    30 H30     -3.8173  -1.3449  -2.7838   H         1 1      0.0000
    31 OL1     -3.2873  -0.9022   1.2129   O.3       1 1      0.0000
    32 H32     -4.2683  -0.8965   1.3384   H         1 1      0.0000
    33 CL4     -0.9359   1.3139   0.8039   C.2       1 1      0.0000
    34 C34     -1.4863   3.2387  -0.4684   C.3       1 1      0.0000
    35 H35     -1.2874   3.7119   0.5012   H         1 1      0.0000
    36 H36     -0.8314   3.7112  -1.2109   H         1 1      0.0000
    37 OL3     -0.9097   1.9548   1.8182   O.2       1 1      0.0000
    38 OL4     -1.2167   1.8075  -0.3960   O.3       1 1      0.0000
    39 C39     -2.9053   3.4228  -0.8464   C.3       1 1      0.0000
    40 H40     -3.5634   3.1099  -0.0384   H         1 1      0.0000
    41 H41     -3.1131   4.4677  -1.0673   H         1 1      0.0000
    42 H42     -3.1488   2.8349  -1.7289   H         1 1      0.0000
@<TRIPOS>BOND
     1     1     2   ar
     2     1     6   ar
     3     1    11    1
     4     2     3   ar
     5     2     7    1
     6     3     4   ar
     7     3     8    1
     8     4     5   ar
     9     4    14    1
    10     5     6   ar
    11     5     9    1
    12     6    10    1
    13    11    12    2
    14    11    13    2
    15    14    15    1
    16    14    23    1
    17    14    33    1
    18    15    16    1
    19    15    17    1
    20    15    18    1
    21    18    19    1
    22    18    25    1
    23    18    31    1
    24    19    20    1
    25    19    21    1
    26    19    22    1
    27    23    24    1
    28    25    26    1
    29    25    27    1
    30    27    28    1
    31    27    29    1
    32    27    30    1
    33    31    32    1
    34    33    37    2
    35    33    38    1
    36    34    35    1
    37    34    36    1
    38    34    38    1
    39    34    39    1
    40    39    40    1
    41    39    41    1
    42    39    42    1
@<TRIPOS>SUBSTRUCTURE
     1 1           1 GROUP             0 ****  ****    0  
@<TRIPOS>MOLECULE
Molecule Name_00375
    42    42     1     0     0
SMALL
NO_CHARGES
****
Generated from the CSD

@<TRIPOS>ATOM
     1 C1       3.5488  -0.2463  -0.2006   C.ar      1 1      0.0000
     2 C2       2.7099   0.1547  -1.2165   C.ar      1 1      0.0000
     3 C3       1.3437   0.0776  -1.0153   C.ar      1 1      0.0000
     4 C4       0.8120  -0.3945   0.1795   C.ar      1 1      0.0000
     5 C5       1.6955  -0.7854   1.1796   C.ar      1 1      0.0000
     6 C6       3.0651  -0.7166   1.0000   C.ar      1 1      0.0000
     7 H7       3.1120   0.5233  -2.1544   H         1 1      0.0000
     8 H8       0.6771   0.3943  -1.8100   H         1 1      0.0000
     9 H9       1.3067  -1.1526   2.1235   H         1 1      0.0000
    10 H10      3.7437  -1.0264   1.7878   H         1 1      0.0000
    11 N11      5.0006  -0.1700  -0.4033   N.pl3     1 1      0.0000
    12 O12      5.7311  -0.5293   0.5069   O.2       1 1      0.0000
    13 O13      5.4138   0.2493  -1.4732   O.2       1 1      0.0000
    14 CL3     -0.6998  -0.4871   0.3906   C.3       1 1      0.0000
    15 CL1     -1.4239  -0.8086  -0.9475   C.3       1 1      0.0000
    16 H16     -1.1791  -0.0260  -1.6758   H         1 1      0.0000
    17 H17     -1.0177  -1.7481  -1.3422   H         1 1      0.0000
    18 CL      -2.9551  -0.9432  -0.8744   C.3       1 1      0.0000
    19 CL2     -3.4262  -1.8413  -2.0035   C.3       1 1      0.0000
    20 H20     -4.2702  -1.3947  -2.5250   H         1 1      0.0000
    21 H21     -2.6288  -2.0033  -2.7257   H         1 1      0.0000
    22 H22     -3.7387  -2.8105  -1.6206   H         1 1      0.0000
    23 OL2     -0.9428  -1.5018   1.3570   O.3       1 1      0.0000
    24 H24     -1.3896  -2.2696   0.9222   H         1 1      0.0000
    25 N25     -3.3476  -1.5364   0.3770   N.3       1 1      0.0000
    26 H26     -3.0260  -0.9130   1.1175   H         1 1      0.0000
    27 C27     -4.7795  -1.7537   0.5907   C.3       1 1      0.0000
    28 H28     -5.0451  -2.7911   0.3985   H         1 1      0.0000
    29 H29     -5.0567  -1.5172   1.6158   H         1 1      0.0000
    30 H30     -5.3684  -1.1244  -0.0734   H         1 1      0.0000
    31 OL1     -3.5518   0.3330  -1.0723   O.3       1 1      0.0000
    32 H32     -4.5150   0.2191  -1.2656   H         1 1      0.0000
    33 CL4     -1.1151   0.8871   0.9531   C.2       1 1      0.0000
    34 C34     -0.6537   3.2137   0.9367   C.3       1 1      0.0000
    35 H35     -0.9572   3.1952   1.9907   H         1 1      0.0000
    36 H36      0.2374   3.8486   0.8571   H         1 1      0.0000
    37 OL3     -2.0179   1.0411   1.7288   O.2       1 1      0.0000
    38 OL4     -0.3542   1.8637   0.4741   O.3       1 1      0.0000
    39 C39     -1.7460   3.7573   0.0990   C.3       1 1      0.0000
    40 H40     -2.6381   3.1396   0.1800   H         1 1      0.0000
    41 H41     -2.0040   4.7676   0.4095   H         1 1      0.0000
    42 H42     -1.4500   3.7895  -0.9475   H         1 1      0.0000
@<TRIPOS>BOND
     1     1     2   ar
     2     1     6   ar
     3     1    11    1
     4     2     3   ar
     5     2     7    1
     6     3     4   ar
     7     3     8    1
     8     4     5   ar
     9     4    14    1
    10     5     6   ar
    11     5     9    1
    12     6    10    1
    13    11    12    2
    14    11    13    2
    15    14    15    1
    16    14    23    1
    17    14    33    1
    18    15    16    1
    19    15    17    1
    20    15    18    1
    21    18    19    1
    22    18    25    1
    23    18    31    1
    24    19    20    1
    25    19    21    1
    26    19    22    1
    27    23    24    1
    28    25    26    1
    29    25    27    1
    30    27    28    1
    31    27    29    1
    32    27    30    1
    33    31    32    1
    34    33    37    2
    35    33    38    1
    36    34    35    1
    37    34    36    1
    38    34    38    1
    39    34    39    1
    40    39    40    1
    41    39    41    1
    42    39    42    1
@<TRIPOS>SUBSTRUCTURE
     1 1           1 GROUP             0 ****  ****    0  
@<TRIPOS>MOLECULE
Molecule Name_00376
    42    42     1     0     0
SMALL
NO_CHARGES
****
Generated from the CSD

@<TRIPOS>ATOM
     1 C1       3.4768  -0.1611  -0.2429   C.ar      1 1      0.0000
     2 C2       2.6365   0.0716  -1.3090   C.ar      1 1      0.0000
     3 C3       1.2714  -0.0229  -1.1079   C.ar      1 1      0.0000
     4 C4       0.7422  -0.3472   0.1363   C.ar      1 1      0.0000
     5 C5       1.6269  -0.5706   1.1855   C.ar      1 1      0.0000
     6 C6       2.9955  -0.4813   1.0070   C.ar      1 1      0.0000
     7 H7       3.0368   0.3237  -2.2854   H         1 1      0.0000
     8 H8       0.6036   0.1617  -1.9423   H         1 1      0.0000
     9 H9       1.2398  -0.8200   2.1678   H         1 1      0.0000
    10 H10      3.6751  -0.6597   1.8338   H         1 1      0.0000
    11 N11      4.9276  -0.0648  -0.4448   N.pl3     1 1      0.0000
    12 O12      5.6593  -0.2740   0.5102   O.2       1 1      0.0000
    13 O13      5.3387   0.2202  -1.5588   O.2       1 1      0.0000
    14 CL3     -0.7681  -0.4605   0.3483   C.3       1 1      0.0000
    15 CL1     -1.4671  -0.9829  -0.9389   C.3       1 1      0.0000
    16 H16     -1.2395  -0.2978  -1.7644   H         1 1      0.0000
    17 H17     -1.0269  -1.9530  -1.2007   H         1 1      0.0000
    18 CL      -2.9939  -1.1570  -0.8580   C.3       1 1      0.0000
    19 CL2     -3.4239  -2.2139  -1.8587   C.3       1 1      0.0000
    20 H20     -4.2963  -1.8830  -2.4183   H         1 1      0.0000
    21 H21     -2.6251  -2.4215  -2.5677   H         1 1      0.0000
    22 H22     -3.6781  -3.1431  -1.3530   H         1 1      0.0000
    23 OL2     -0.9889  -1.3434   1.4411   O.3       1 1      0.0000
    24 H24     -1.2636  -2.2293   1.0976   H         1 1      0.0000
    25 N25     -3.3808  -1.5891   0.4594   N.3       1 1      0.0000
    26 H26     -3.0871  -0.8614   1.1111   H         1 1      0.0000
    27 C27     -4.8072  -1.8228   0.6913   C.3       1 1      0.0000
    28 H28     -5.0463  -2.8794   0.5899   H         1 1      0.0000
    29 H29     -5.0923  -1.5053   1.6921   H         1 1      0.0000
    30 H30     -5.4102  -1.2686  -0.0248   H         1 1      0.0000
    31 OL1     -3.6288   0.0605  -1.2300   O.3       1 1      0.0000
    32 H32     -4.5873  -0.1089  -1.4055   H         1 1      0.0000
    33 CL4     -1.2330   0.9624   0.7177   C.2       1 1      0.0000
    34 C34     -0.8460   3.2796   0.3906   C.3       1 1      0.0000
    35 H35     -0.5151   3.9235  -0.4336   H         1 1      0.0000
    36 H36     -1.9337   3.3878   0.4826   H         1 1      0.0000
    37 OL3     -2.1485   1.1894   1.4598   O.2       1 1      0.0000
    38 OL4     -0.4986   1.8902   0.1162   O.3       1 1      0.0000
    39 C39     -0.1831   3.6810   1.6516   C.3       1 1      0.0000
    40 H40      0.8975   3.5872   1.5661   H         1 1      0.0000
    41 H41     -0.4151   4.7153   1.8970   H         1 1      0.0000
    42 H42     -0.5135   3.0544   2.4774   H         1 1      0.0000
@<TRIPOS>BOND
     1     1     2   ar
     2     1     6   ar
     3     1    11    1
     4     2     3   ar
     5     2     7    1
     6     3     4   ar
     7     3     8    1
     8     4     5   ar
     9     4    14    1
    10     5     6   ar
    11     5     9    1
    12     6    10    1
    13    11    12    2
    14    11    13    2
    15    14    15    1
    16    14    23    1
    17    14    33    1
    18    15    16    1
    19    15    17    1
    20    15    18    1
    21    18    19    1
    22    18    25    1
    23    18    31    1
    24    19    20    1
    25    19    21    1
    26    19    22    1
    27    23    24    1
    28    25    26    1
    29    25    27    1
    30    27    28    1
    31    27    29    1
    32    27    30    1
    33    31    32    1
    34    33    37    2
    35    33    38    1
    36    34    35    1
    37    34    36    1
    38    34    38    1
    39    34    39    1
    40    39    40    1
    41    39    41    1
    42    39    42    1
@<TRIPOS>SUBSTRUCTURE
     1 1           1 GROUP             0 ****  ****    0  
@<TRIPOS>MOLECULE
Molecule Name_00377
    42    42     1     0     0
SMALL
NO_CHARGES
****
Generated from the CSD

@<TRIPOS>ATOM
     1 C1       3.5524  -0.2667  -0.1126   C.ar      1 1      0.0000
     2 C2       2.6880  -0.1202  -1.1747   C.ar      1 1      0.0000
     3 C3       1.3273  -0.1459  -0.9283   C.ar      1 1      0.0000
     4 C4       0.8260  -0.3175   0.3572   C.ar      1 1      0.0000
     5 C5       1.7345  -0.4580   1.4004   C.ar      1 1      0.0000
     6 C6       3.0992  -0.4353   1.1769   C.ar      1 1      0.0000
     7 H7       3.0663   0.0126  -2.1829   H         1 1      0.0000
     8 H8       0.6407  -0.0284  -1.7596   H         1 1      0.0000
     9 H9       1.3697  -0.5880   2.4138   H         1 1      0.0000
    10 H10      3.7976  -0.5477   1.9997   H         1 1      0.0000
    11 N11      4.9987  -0.2423  -0.3622   N.pl3     1 1      0.0000
    12 O12      5.7520  -0.3735   0.5899   O.2       1 1      0.0000
    13 O13      5.3847  -0.0918  -1.5109   O.2       1 1      0.0000
    14 CL3     -0.6800  -0.3557   0.6204   C.3       1 1      0.0000
    15 CL1     -1.4334  -0.9883  -0.5840   C.3       1 1      0.0000
    16 H16     -1.2087  -0.4042  -1.4846   H         1 1      0.0000
    17 H17     -1.0326  -1.9958  -0.7507   H         1 1      0.0000
    18 CL      -2.9620  -1.0990  -0.4448   C.3       1 1      0.0000
    19 CL2     -3.5981   0.1808  -0.9558   C.3       1 1      0.0000
    20 H20     -4.6780   0.0714  -1.0309   H         1 1      0.0000
    21 H21     -3.3874   1.0108  -0.2847   H         1 1      0.0000
    22 H22     -3.2139   0.4357  -1.9413   H         1 1      0.0000
    23 OL2     -0.8952  -1.1088   1.8074   O.3       1 1      0.0000
    24 H24     -1.8608  -1.1163   2.0214   H         1 1      0.0000
    25 N25     -3.4587  -2.2012  -1.2262   N.3       1 1      0.0000
    26 H26     -2.9907  -3.0422  -0.8883   H         1 1      0.0000
    27 C27     -4.8985  -2.4600  -1.1722   C.3       1 1      0.0000
    28 H28     -5.4541  -1.6475  -1.6357   H         1 1      0.0000
    29 H29     -5.1447  -3.3812  -1.6962   H         1 1      0.0000
    30 H30     -5.2348  -2.5560  -0.1419   H         1 1      0.0000
    31 OL1     -3.3038  -1.2210   0.9307   O.3       1 1      0.0000
    32 H32     -4.2882  -1.2219   1.0260   H         1 1      0.0000
    33 CL4     -1.0890   1.1135   0.8465   C.2       1 1      0.0000
    34 C34     -0.6475   3.3672   0.2528   C.3       1 1      0.0000
    35 H35     -0.9181   3.6043   1.2892   H         1 1      0.0000
    36 H36      0.2354   3.9644  -0.0065   H         1 1      0.0000
    37 OL3     -1.9686   1.4503   1.5904   O.2       1 1      0.0000
    38 OL4     -0.3513   1.9455   0.1214   O.3       1 1      0.0000
    39 C39     -1.7697   3.6912  -0.6561   C.3       1 1      0.0000
    40 H40     -2.6536   3.1111  -0.3996   H         1 1      0.0000
    41 H41     -2.0262   4.7465  -0.5912   H         1 1      0.0000
    42 H42     -1.5064   3.4692  -1.6882   H         1 1      0.0000
@<TRIPOS>BOND
     1     1     2   ar
     2     1     6   ar
     3     1    11    1
     4     2     3   ar
     5     2     7    1
     6     3     4   ar
     7     3     8    1
     8     4     5   ar
     9     4    14    1
    10     5     6   ar
    11     5     9    1
    12     6    10    1
    13    11    12    2
    14    11    13    2
    15    14    15    1
    16    14    23    1
    17    14    33    1
    18    15    16    1
    19    15    17    1
    20    15    18    1
    21    18    19    1
    22    18    25    1
    23    18    31    1
    24    19    20    1
    25    19    21    1
    26    19    22    1
    27    23    24    1
    28    25    26    1
    29    25    27    1
    30    27    28    1
    31    27    29    1
    32    27    30    1
    33    31    32    1
    34    33    37    2
    35    33    38    1
    36    34    35    1
    37    34    36    1
    38    34    38    1
    39    34    39    1
    40    39    40    1
    41    39    41    1
    42    39    42    1
@<TRIPOS>SUBSTRUCTURE
     1 1           1 GROUP             0 ****  ****    0  
@<TRIPOS>MOLECULE
Molecule Name_00378
    42    42     1     0     0
SMALL
NO_CHARGES
****
Generated from the CSD

@<TRIPOS>ATOM
     1 C1       3.4534  -0.3492  -0.1234   C.ar      1 1      0.0000
     2 C2       2.5968  -0.1543  -1.1840   C.ar      1 1      0.0000
     3 C3       1.2358  -0.1297  -0.9390   C.ar      1 1      0.0000
     4 C4       0.7266  -0.2991   0.3436   C.ar      1 1      0.0000
     5 C5       1.6275  -0.4896   1.3855   C.ar      1 1      0.0000
     6 C6       2.9923  -0.5175   1.1633   C.ar      1 1      0.0000
     7 H7       2.9813  -0.0227  -2.1900   H         1 1      0.0000
     8 H8       0.5554   0.0261  -1.7691   H         1 1      0.0000
     9 H9       1.2565  -0.6189   2.3967   H         1 1      0.0000
    10 H10      3.6847  -0.6686   1.9849   H         1 1      0.0000
    11 N11      4.8999  -0.3783  -0.3716   N.pl3     1 1      0.0000
    12 O12      5.6462  -0.5521   0.5791   O.2       1 1      0.0000
    13 O13      5.2929  -0.2274  -1.5179   O.2       1 1      0.0000
    14 CL3     -0.7802  -0.2816   0.6051   C.3       1 1      0.0000
    15 CL1     -1.5564  -0.8677  -0.6083   C.3       1 1      0.0000
    16 H16     -1.3064  -0.2816  -1.5009   H         1 1      0.0000
    17 H17     -1.1964  -1.8883  -0.7874   H         1 1      0.0000
    18 CL      -3.0884  -0.9180  -0.4726   C.3       1 1      0.0000
    19 CL2     -3.6679   0.4097  -0.9255   C.3       1 1      0.0000
    20 H20     -4.6580   0.2719  -1.3551   H         1 1      0.0000
    21 H21     -3.7548   1.0984  -0.0877   H         1 1      0.0000
    22 H22     -3.0327   0.8708  -1.6789   H         1 1      0.0000
    23 OL2     -1.0263  -1.0417   1.7816   O.3       1 1      0.0000
    24 H24     -1.9917  -1.0141   1.9948   H         1 1      0.0000
    25 N25     -3.6318  -1.9617  -1.3017   N.3       1 1      0.0000
    26 H26     -3.3541  -1.7563  -2.2615   H         1 1      0.0000
    27 C27     -3.2026  -3.3315  -1.0144   C.3       1 1      0.0000
    28 H28     -2.5737  -3.3605  -0.1271   H         1 1      0.0000
    29 H29     -4.0615  -3.9767  -0.8423   H         1 1      0.0000
    30 H30     -2.6333  -3.7399  -1.8468   H         1 1      0.0000
    31 OL1     -3.4364  -1.0861   0.8965   O.3       1 1      0.0000
    32 H32     -4.4213  -1.0928   0.9868   H         1 1      0.0000
    33 CL4     -1.1313   1.1994   0.8510   C.2       1 1      0.0000
    34 C34     -0.5932   3.4422   0.2972   C.3       1 1      0.0000
    35 H35     -0.8637   3.6739   1.3347   H         1 1      0.0000
    36 H36      0.3157   4.0069   0.0552   H         1 1      0.0000
    37 OL3     -2.0036   1.5601   1.5923   O.2       1 1      0.0000
    38 OL4     -0.3537   2.0118   0.1458   O.3       1 1      0.0000
    39 C39     -1.6926   3.8256  -0.6164   C.3       1 1      0.0000
    40 H40     -2.6018   3.2781  -0.3769   H         1 1      0.0000
    41 H41     -1.9067   4.8894  -0.5370   H         1 1      0.0000
    42 H42     -1.4288   3.6092  -1.6495   H         1 1      0.0000
@<TRIPOS>BOND
     1     1     2   ar
     2     1     6   ar
     3     1    11    1
     4     2     3   ar
     5     2     7    1
     6     3     4   ar
     7     3     8    1
     8     4     5   ar
     9     4    14    1
    10     5     6   ar
    11     5     9    1
    12     6    10    1
    13    11    12    2
    14    11    13    2
    15    14    15    1
    16    14    23    1
    17    14    33    1
    18    15    16    1
    19    15    17    1
    20    15    18    1
    21    18    19    1
    22    18    25    1
    23    18    31    1
    24    19    20    1
    25    19    21    1
    26    19    22    1
    27    23    24    1
    28    25    26    1
    29    25    27    1
    30    27    28    1
    31    27    29    1
    32    27    30    1
    33    31    32    1
    34    33    37    2
    35    33    38    1
    36    34    35    1
    37    34    36    1
    38    34    38    1
    39    34    39    1
    40    39    40    1
    41    39    41    1
    42    39    42    1
@<TRIPOS>SUBSTRUCTURE
     1 1           1 GROUP             0 ****  ****    0  
@<TRIPOS>MOLECULE
Molecule Name_00379
    42    42     1     0     0
SMALL
NO_CHARGES
****
Generated from the CSD

@<TRIPOS>ATOM
     1 C1       3.4781  -0.1858  -0.1483   C.ar      1 1      0.0000
     2 C2       2.6210  -0.2133  -1.2259   C.ar      1 1      0.0000
     3 C3       1.2593  -0.2536  -0.9869   C.ar      1 1      0.0000
     4 C4       0.7501  -0.2690   0.3068   C.ar      1 1      0.0000
     5 C5       1.6513  -0.2366   1.3652   C.ar      1 1      0.0000
     6 C6       3.0168  -0.1960   1.1493   C.ar      1 1      0.0000
     7 H7       3.0056  -0.2035  -2.2403   H         1 1      0.0000
     8 H8       0.5783  -0.2726  -1.8308   H         1 1      0.0000
     9 H9       1.2800  -0.2425   2.3845   H         1 1      0.0000
    10 H10      3.7095  -0.1727   1.9841   H         1 1      0.0000
    11 N11      4.9254  -0.1442  -0.3898   N.pl3     1 1      0.0000
    12 O12      5.6723  -0.1201   0.5761   O.2       1 1      0.0000
    13 O13      5.3187  -0.1354  -1.5458   O.2       1 1      0.0000
    14 CL3     -0.7566  -0.3246   0.5632   C.3       1 1      0.0000
    15 CL1     -1.4748  -1.1389  -0.5501   C.3       1 1      0.0000
    16 H16     -1.2602  -0.6730  -1.5195   H         1 1      0.0000
    17 H17     -1.0381  -2.1448  -0.5776   H         1 1      0.0000
    18 CL      -3.0002  -1.2836  -0.4070   C.3       1 1      0.0000
    19 CL2     -3.6737  -0.1069  -1.0891   C.3       1 1      0.0000
    20 H20     -4.7484  -0.2632  -1.1557   H         1 1      0.0000
    21 H21     -3.4987   0.8124  -0.5342   H         1 1      0.0000
    22 H22     -3.2876   0.0271  -2.0974   H         1 1      0.0000
    23 OL2     -0.9591  -0.9191   1.8392   O.3       1 1      0.0000
    24 H24     -1.9261  -0.9318   2.0461   H         1 1      0.0000
    25 N25     -3.4505  -2.4972  -1.0365   N.3       1 1      0.0000
    26 H26     -2.9580  -3.2684  -0.5860   H         1 1      0.0000
    27 C27     -4.8812  -2.7969  -0.9574   C.3       1 1      0.0000
    28 H28     -5.4590  -2.0738  -1.5293   H         1 1      0.0000
    29 H29     -5.0902  -3.7880  -1.3546   H         1 1      0.0000
    30 H30     -5.2253  -2.7659   0.0743   H         1 1      0.0000
    31 OL1     -3.3527  -1.2322   0.9702   O.3       1 1      0.0000
    32 H32     -4.3375  -1.2549   1.0585   H         1 1      0.0000
    33 CL4     -1.2177   1.1464   0.5876   C.2       1 1      0.0000
    34 C34     -0.8466   3.3144  -0.3003   C.3       1 1      0.0000
    35 H35     -0.5374   3.7386  -1.2636   H         1 1      0.0000
    36 H36     -1.9323   3.4442  -0.2116   H         1 1      0.0000
    37 OL3     -2.1164   1.5486   1.2739   O.2       1 1      0.0000
    38 OL4     -0.5008   1.8992  -0.2380   O.3       1 1      0.0000
    39 C39     -0.1558   4.0080   0.8098   C.3       1 1      0.0000
    40 H40      0.9228   3.8937   0.7241   H         1 1      0.0000
    41 H41     -0.3856   5.0714   0.8026   H         1 1      0.0000
    42 H42     -0.4645   3.6009   1.7704   H         1 1      0.0000
@<TRIPOS>BOND
     1     1     2   ar
     2     1     6   ar
     3     1    11    1
     4     2     3   ar
     5     2     7    1
     6     3     4   ar
     7     3     8    1
     8     4     5   ar
     9     4    14    1
    10     5     6   ar
    11     5     9    1
    12     6    10    1
    13    11    12    2
    14    11    13    2
    15    14    15    1
    16    14    23    1
    17    14    33    1
    18    15    16    1
    19    15    17    1
    20    15    18    1
    21    18    19    1
    22    18    25    1
    23    18    31    1
    24    19    20    1
    25    19    21    1
    26    19    22    1
    27    23    24    1
    28    25    26    1
    29    25    27    1
    30    27    28    1
    31    27    29    1
    32    27    30    1
    33    31    32    1
    34    33    37    2
    35    33    38    1
    36    34    35    1
    37    34    36    1
    38    34    38    1
    39    34    39    1
    40    39    40    1
    41    39    41    1
    42    39    42    1
@<TRIPOS>SUBSTRUCTURE
     1 1           1 GROUP             0 ****  ****    0  
@<TRIPOS>MOLECULE
Molecule Name_00380
    42    42     1     0     0
SMALL
NO_CHARGES
****
Generated from the CSD

@<TRIPOS>ATOM
     1 C1       3.3821  -0.2671  -0.1600   C.ar      1 1      0.0000
     2 C2       2.5283  -0.2404  -1.2402   C.ar      1 1      0.0000
     3 C3       1.1652  -0.2322  -1.0057   C.ar      1 1      0.0000
     4 C4       0.6513  -0.2528   0.2861   C.ar      1 1      0.0000
     5 C5       1.5495  -0.2758   1.3473   C.ar      1 1      0.0000
     6 C6       2.9163  -0.2843   1.1359   C.ar      1 1      0.0000
     7 H7       2.9165  -0.2261  -2.2533   H         1 1      0.0000
     8 H8       0.4869  -0.2086  -1.8516   H         1 1      0.0000
     9 H9       1.1747  -0.2868   2.3653   H         1 1      0.0000
    10 H10      3.6065  -0.3040   1.9728   H         1 1      0.0000
    11 N11      4.8307  -0.2772  -0.3967   N.pl3     1 1      0.0000
    12 O12      5.5747  -0.3008   0.5714   O.2       1 1      0.0000
    13 O13      5.2280  -0.2615  -1.5513   O.2       1 1      0.0000
    14 CL3     -0.8573  -0.2545   0.5373   C.3       1 1      0.0000
    15 CL1     -1.6027  -1.0188  -0.5934   C.3       1 1      0.0000
    16 H16     -1.3655  -0.5442  -1.5532   H         1 1      0.0000
    17 H17     -1.2065  -2.0408  -0.6380   H         1 1      0.0000
    18 CL      -3.1333  -1.1049  -0.4584   C.3       1 1      0.0000
    19 CL2     -3.7540   0.1323  -1.0810   C.3       1 1      0.0000
    20 H20     -4.7351  -0.0943  -1.4931   H         1 1      0.0000
    21 H21     -3.8715   0.9197  -0.3394   H         1 1      0.0000
    22 H22     -3.1287   0.5146  -1.8851   H         1 1      0.0000
    23 OL2     -1.0871  -0.8650   1.8010   O.3       1 1      0.0000
    24 H24     -2.0546  -0.8440   2.0051   H         1 1      0.0000
    25 N25     -3.6336  -2.2650  -1.1481   N.3       1 1      0.0000
    26 H26     -3.3551  -2.1754  -2.1252   H         1 1      0.0000
    27 C27     -3.1602  -3.5705  -0.6848   C.3       1 1      0.0000
    28 H28     -2.5381  -3.4630   0.2013   H         1 1      0.0000
    29 H29     -3.9979  -4.2179  -0.4343   H         1 1      0.0000
    30 H30     -2.5703  -4.0625  -1.4554   H         1 1      0.0000
    31 OL1     -3.4868  -1.1074   0.9196   O.3       1 1      0.0000
    32 H32     -4.4715  -1.1370   1.0062   H         1 1      0.0000
    33 CL4     -1.2610   1.2326   0.5887   C.2       1 1      0.0000
    34 C34     -0.7953   3.4028  -0.2477   C.3       1 1      0.0000
    35 H35     -0.4585   3.8350  -1.1981   H         1 1      0.0000
    36 H36     -1.8760   3.5731  -0.1679   H         1 1      0.0000
    37 OL3     -2.1512   1.6549   1.2739   O.2       1 1      0.0000
    38 OL4     -0.5057   1.9741  -0.2124   O.3       1 1      0.0000
    39 C39     -0.0910   4.0449   0.8847   C.3       1 1      0.0000
    40 H40      0.9833   3.8903   0.8083   H         1 1      0.0000
    41 H41     -0.2791   5.1164   0.8983   H         1 1      0.0000
    42 H42     -0.4265   3.6298   1.8328   H         1 1      0.0000
@<TRIPOS>BOND
     1     1     2   ar
     2     1     6   ar
     3     1    11    1
     4     2     3   ar
     5     2     7    1
     6     3     4   ar
     7     3     8    1
     8     4     5   ar
     9     4    14    1
    10     5     6   ar
    11     5     9    1
    12     6    10    1
    13    11    12    2
    14    11    13    2
    15    14    15    1
    16    14    23    1
    17    14    33    1
    18    15    16    1
    19    15    17    1
    20    15    18    1
    21    18    19    1
    22    18    25    1
    23    18    31    1
    24    19    20    1
    25    19    21    1
    26    19    22    1
    27    23    24    1
    28    25    26    1
    29    25    27    1
    30    27    28    1
    31    27    29    1
    32    27    30    1
    33    31    32    1
    34    33    37    2
    35    33    38    1
    36    34    35    1
    37    34    36    1
    38    34    38    1
    39    34    39    1
    40    39    40    1
    41    39    41    1
    42    39    42    1
@<TRIPOS>SUBSTRUCTURE
     1 1           1 GROUP             0 ****  ****    0  
@<TRIPOS>MOLECULE
Molecule Name_00381
    42    42     1     0     0
SMALL
NO_CHARGES
****
Generated from the CSD

@<TRIPOS>ATOM
     1 C1       2.8494  -0.6141  -0.2005   C.ar      1 1      0.0000
     2 C2       1.9349  -0.2611  -1.1678   C.ar      1 1      0.0000
     3 C3       0.6369   0.0180  -0.7803   C.ar      1 1      0.0000
     4 C4       0.2463  -0.0541   0.5522   C.ar      1 1      0.0000
     5 C5       1.2029  -0.4111   1.4960   C.ar      1 1      0.0000
     6 C6       2.5065  -0.6942   1.1309   C.ar      1 1      0.0000
     7 H7       2.2264  -0.2029  -2.2113   H         1 1      0.0000
     8 H8      -0.0880   0.2993  -1.5364   H         1 1      0.0000
     9 H9       0.9256  -0.4696   2.5432   H         1 1      0.0000
    10 H10      3.2431  -0.9732   1.8771   H         1 1      0.0000
    11 N11      4.2297  -0.9136  -0.6002   N.pl3     1 1      0.0000
    12 O12      5.0287  -1.2252   0.2691   O.2       1 1      0.0000
    13 O13      4.5181  -0.8380  -1.7844   O.2       1 1      0.0000
    14 CL3     -1.1936   0.2453   0.9717   C.3       1 1      0.0000
    15 CL1     -2.1934  -0.2068  -0.1303   C.3       1 1      0.0000
    16 H16     -3.2088   0.0606   0.1861   H         1 1      0.0000
    17 H17     -1.9836   0.3661  -1.0421   H         1 1      0.0000
    18 CL      -2.1741  -1.7028  -0.4906   C.3       1 1      0.0000
    19 CL2     -3.5859  -2.1481  -0.8252   C.3       1 1      0.0000
    20 H20     -3.5793  -3.1275  -1.2991   H         1 1      0.0000
    21 H21     -4.1940  -2.2112   0.0748   H         1 1      0.0000
    22 H22     -4.0608  -1.4452  -1.5065   H         1 1      0.0000
    23 OL2     -1.4413  -0.4375   2.1944   O.3       1 1      0.0000
    24 H24     -2.3558  -0.2288   2.5079   H         1 1      0.0000
    25 N25     -1.3372  -1.9318  -1.6391   N.3       1 1      0.0000
    26 H26     -1.3362  -2.9369  -1.8128   H         1 1      0.0000
    27 C27     -1.7302  -1.2803  -2.8898   C.3       1 1      0.0000
    28 H28     -1.5173  -0.2140  -2.8526   H         1 1      0.0000
    29 H29     -1.1886  -1.7049  -3.7325   H         1 1      0.0000
    30 H30     -2.7952  -1.4072  -3.0726   H         1 1      0.0000
    31 OL1     -1.7501  -2.4557   0.6395   O.3       1 1      0.0000
    32 H32     -1.7621  -3.4190   0.4160   H         1 1      0.0000
    33 CL4     -1.2403   1.7694   1.1999   C.2       1 1      0.0000
    34 C34     -0.3690   3.8652   0.5110   C.3       1 1      0.0000
    35 H35     -0.4755   4.1595   1.5624   H         1 1      0.0000
    36 H36      0.5945   4.2486   0.1531   H         1 1      0.0000
    37 OL3     -1.9443   2.2966   2.0165   O.2       1 1      0.0000
    38 OL4     -0.4117   2.4130   0.3867   O.3       1 1      0.0000
    39 C39     -1.4755   4.4303  -0.2933   C.3       1 1      0.0000
    40 H40     -2.4365   4.0638   0.0615   H         1 1      0.0000
    41 H41     -1.4827   5.5164  -0.2301   H         1 1      0.0000
    42 H42     -1.3723   4.1524  -1.3402   H         1 1      0.0000
@<TRIPOS>BOND
     1     1     2   ar
     2     1     6   ar
     3     1    11    1
     4     2     3   ar
     5     2     7    1
     6     3     4   ar
     7     3     8    1
     8     4     5   ar
     9     4    14    1
    10     5     6   ar
    11     5     9    1
    12     6    10    1
    13    11    12    2
    14    11    13    2
    15    14    15    1
    16    14    23    1
    17    14    33    1
    18    15    16    1
    19    15    17    1
    20    15    18    1
    21    18    19    1
    22    18    25    1
    23    18    31    1
    24    19    20    1
    25    19    21    1
    26    19    22    1
    27    23    24    1
    28    25    26    1
    29    25    27    1
    30    27    28    1
    31    27    29    1
    32    27    30    1
    33    31    32    1
    34    33    37    2
    35    33    38    1
    36    34    35    1
    37    34    36    1
    38    34    38    1
    39    34    39    1
    40    39    40    1
    41    39    41    1
    42    39    42    1
@<TRIPOS>SUBSTRUCTURE
     1 1           1 GROUP             0 ****  ****    0  
@<TRIPOS>MOLECULE
Molecule Name_00382
    42    42     1     0     0
SMALL
NO_CHARGES
****
Generated from the CSD

@<TRIPOS>ATOM
     1 C1       3.0255  -0.7687  -0.1989   C.ar      1 1      0.0000
     2 C2       2.3334  -0.0457  -1.1449   C.ar      1 1      0.0000
     3 C3       1.0288   0.3230  -0.8714   C.ar      1 1      0.0000
     4 C4       0.4133  -0.0228   0.3265   C.ar      1 1      0.0000
     5 C5       1.1501  -0.7501   1.2547   C.ar      1 1      0.0000
     6 C6       2.4560  -1.1292   1.0021   C.ar      1 1      0.0000
     7 H7       2.8016   0.2289  -2.0843   H         1 1      0.0000
     8 H8       0.4786   0.8949  -1.6106   H         1 1      0.0000
     9 H9       0.6951  -1.0281   2.1995   H         1 1      0.0000
    10 H10      3.0195  -1.6981   1.7342   H         1 1      0.0000
    11 N11      4.4105  -1.1666  -0.4787   N.pl3     1 1      0.0000
    12 O12      4.8120  -1.0926  -1.6296   O.2       1 1      0.0000
    13 O13      5.1000  -1.5540   0.4518   O.2       1 1      0.0000
    14 CL3     -1.0334   0.3792   0.6173   C.3       1 1      0.0000
    15 CL1     -1.9208   0.1941  -0.6463   C.3       1 1      0.0000
    16 H16     -2.7752   0.8782  -0.5783   H         1 1      0.0000
    17 H17     -1.3384   0.4997  -1.5243   H         1 1      0.0000
    18 CL      -2.4544  -1.2272  -0.8976   C.3       1 1      0.0000
    19 CL2     -3.3822  -1.2010  -2.0984   C.3       1 1      0.0000
    20 H20     -3.7860  -2.1919  -2.2954   H         1 1      0.0000
    21 H21     -4.2158  -0.5233  -1.9269   H         1 1      0.0000
    22 H22     -2.8521  -0.8679  -2.9882   H         1 1      0.0000
    23 OL2     -1.5018  -0.4279   1.6905   O.3       1 1      0.0000
    24 H24     -2.4249  -0.1607   1.9241   H         1 1      0.0000
    25 N25     -1.3680  -2.1290  -1.1776   N.3       1 1      0.0000
    26 H26     -0.5099  -1.5778  -1.1615   H         1 1      0.0000
    27 C27     -1.1766  -3.2481  -0.2535   C.3       1 1      0.0000
    28 H28     -2.0619  -3.8799  -0.2242   H         1 1      0.0000
    29 H29     -0.3323  -3.8618  -0.5605   H         1 1      0.0000
    30 H30     -0.9844  -2.8872   0.7547   H         1 1      0.0000
    31 OL1     -3.2242  -1.6479   0.2223   O.3       1 1      0.0000
    32 H32     -3.6485  -2.5183   0.0212   H         1 1      0.0000
    33 CL4     -0.9628   1.8547   1.0589   C.2       1 1      0.0000
    34 C34     -1.0736   4.1090   0.3296   C.3       1 1      0.0000
    35 H35     -0.3302   4.3095   1.1110   H         1 1      0.0000
    36 H36     -0.7786   4.6726  -0.5641   H         1 1      0.0000
    37 OL3     -0.7851   2.1994   2.1947   O.2       1 1      0.0000
    38 OL4     -1.1217   2.6821   0.0332   O.3       1 1      0.0000
    39 C39     -2.4179   4.5325   0.7812   C.3       1 1      0.0000
    40 H40     -2.7147   3.9862   1.6740   H         1 1      0.0000
    41 H41     -2.4294   5.5951   1.0146   H         1 1      0.0000
    42 H42     -3.1606   4.3473   0.0080   H         1 1      0.0000
@<TRIPOS>BOND
     1     1     2   ar
     2     1     6   ar
     3     1    11    1
     4     2     3   ar
     5     2     7    1
     6     3     4   ar
     7     3     8    1
     8     4     5   ar
     9     4    14    1
    10     5     6   ar
    11     5     9    1
    12     6    10    1
    13    11    12    2
    14    11    13    2
    15    14    15    1
    16    14    23    1
    17    14    33    1
    18    15    16    1
    19    15    17    1
    20    15    18    1
    21    18    19    1
    22    18    25    1
    23    18    31    1
    24    19    20    1
    25    19    21    1
    26    19    22    1
    27    23    24    1
    28    25    26    1
    29    25    27    1
    30    27    28    1
    31    27    29    1
    32    27    30    1
    33    31    32    1
    34    33    37    2
    35    33    38    1
    36    34    35    1
    37    34    36    1
    38    34    38    1
    39    34    39    1
    40    39    40    1
    41    39    41    1
    42    39    42    1
@<TRIPOS>SUBSTRUCTURE
     1 1           1 GROUP             0 ****  ****    0  
@<TRIPOS>MOLECULE
Molecule Name_00383
    42    42     1     0     0
SMALL
NO_CHARGES
****
Generated from the CSD

@<TRIPOS>ATOM
     1 C1       2.9348  -0.6081  -0.2279   C.ar      1 1      0.0000
     2 C2       2.1917   0.0939  -1.1507   C.ar      1 1      0.0000
     3 C3       0.8723   0.3842  -0.8543   C.ar      1 1      0.0000
     4 C4       0.2924  -0.0187   0.3435   C.ar      1 1      0.0000
     5 C5       1.0803  -0.7222   1.2478   C.ar      1 1      0.0000
     6 C6       2.4017  -1.0233   0.9721   C.ar      1 1      0.0000
     7 H7       2.6318   0.4126  -2.0899   H         1 1      0.0000
     8 H8       0.2818   0.9392  -1.5751   H         1 1      0.0000
     9 H9       0.6537  -1.0437   2.1921   H         1 1      0.0000
    10 H10      3.0052  -1.5744   1.6857   H         1 1      0.0000
    11 N11      4.3359  -0.9230  -0.5322   N.pl3     1 1      0.0000
    12 O12      4.7178  -0.8041  -1.6861   O.2       1 1      0.0000
    13 O13      5.0578  -1.2898   0.3818   O.2       1 1      0.0000
    14 CL3     -1.1703   0.2965   0.6596   C.3       1 1      0.0000
    15 CL1     -2.0625   0.0875  -0.5969   C.3       1 1      0.0000
    16 H16     -2.9524   0.7217  -0.5048   H         1 1      0.0000
    17 H17     -1.5093   0.4422  -1.4753   H         1 1      0.0000
    18 CL      -2.5200  -1.3560  -0.8708   C.3       1 1      0.0000
    19 CL2     -3.4633  -1.3576  -2.0597   C.3       1 1      0.0000
    20 H20     -3.8143  -2.3653  -2.2722   H         1 1      0.0000
    21 H21     -4.3308  -0.7307  -1.8646   H         1 1      0.0000
    22 H22     -2.9640  -0.9782  -2.9488   H         1 1      0.0000
    23 OL2     -1.5795  -0.5564   1.7215   O.3       1 1      0.0000
    24 H24     -2.5128  -0.3454   1.9715   H         1 1      0.0000
    25 N25     -1.3891  -2.1905  -1.1821   N.3       1 1      0.0000
    26 H26     -0.5627  -1.5929  -1.1649   H         1 1      0.0000
    27 C27     -1.1243  -3.3153  -0.2833   C.3       1 1      0.0000
    28 H28     -1.9729  -3.9956  -0.2565   H         1 1      0.0000
    29 H29     -0.2515  -3.8750  -0.6128   H         1 1      0.0000
    30 H30     -0.9392  -2.9642   0.7297   H         1 1      0.0000
    31 OL1     -3.2508  -1.8408   0.2493   O.3       1 1      0.0000
    32 H32     -3.6290  -2.7293   0.0355   H         1 1      0.0000
    33 CL4     -1.1756   1.7646   1.1304   C.2       1 1      0.0000
    34 C34     -1.4202   4.0234   0.4487   C.3       1 1      0.0000
    35 H35     -2.0122   4.5715  -0.2946   H         1 1      0.0000
    36 H36     -1.8874   4.1798   1.4288   H         1 1      0.0000
    37 OL3     -1.0025   2.0962   2.2708   O.2       1 1      0.0000
    38 OL4     -1.3933   2.6021   0.1237   O.3       1 1      0.0000
    39 C39     -0.0263   4.5208   0.4608   C.3       1 1      0.0000
    40 H40      0.4421   4.3795  -0.5110   H         1 1      0.0000
    41 H41      0.0025   5.5818   0.6998   H         1 1      0.0000
    42 H42      0.5662   3.9899   1.2030   H         1 1      0.0000
@<TRIPOS>BOND
     1     1     2   ar
     2     1     6   ar
     3     1    11    1
     4     2     3   ar
     5     2     7    1
     6     3     4   ar
     7     3     8    1
     8     4     5   ar
     9     4    14    1
    10     5     6   ar
    11     5     9    1
    12     6    10    1
    13    11    12    2
    14    11    13    2
    15    14    15    1
    16    14    23    1
    17    14    33    1
    18    15    16    1
    19    15    17    1
    20    15    18    1
    21    18    19    1
    22    18    25    1
    23    18    31    1
    24    19    20    1
    25    19    21    1
    26    19    22    1
    27    23    24    1
    28    25    26    1
    29    25    27    1
    30    27    28    1
    31    27    29    1
    32    27    30    1
    33    31    32    1
    34    33    37    2
    35    33    38    1
    36    34    35    1
    37    34    36    1
    38    34    38    1
    39    34    39    1
    40    39    40    1
    41    39    41    1
    42    39    42    1
@<TRIPOS>SUBSTRUCTURE
     1 1           1 GROUP             0 ****  ****    0  
@<TRIPOS>MOLECULE
Molecule Name_00384
    42    42     1     0     0
SMALL
NO_CHARGES
****
Generated from the CSD

@<TRIPOS>ATOM
     1 C1       3.5878  -0.4794  -0.1338   C.ar      1 1      0.0000
     2 C2       2.8027  -0.0657  -1.1870   C.ar      1 1      0.0000
     3 C3       1.4337   0.0052  -1.0034   C.ar      1 1      0.0000
     4 C4       0.8463  -0.3326   0.2107   C.ar      1 1      0.0000
     5 C5       1.6768  -0.7417   1.2481   C.ar      1 1      0.0000
     6 C6       3.0482  -0.8198   1.0866   C.ar      1 1      0.0000
     7 H7       3.2485   0.1990  -2.1401   H         1 1      0.0000
     8 H8       0.8095   0.3328  -1.8276   H         1 1      0.0000
     9 H9       1.2443  -1.0059   2.2073   H         1 1      0.0000
    10 H10      3.6851  -1.1422   1.9038   H         1 1      0.0000
    11 N11      5.0419  -0.5597  -0.3175   N.pl3     1 1      0.0000
    12 O12      5.7244  -0.9282   0.6258   O.2       1 1      0.0000
    13 O13      5.5051  -0.2544  -1.4054   O.2       1 1      0.0000
    14 CL3     -0.6693  -0.2621   0.4028   C.3       1 1      0.0000
    15 CL1     -1.4089  -0.6192  -0.9178   C.3       1 1      0.0000
    16 H16     -1.1499   0.1277  -1.6779   H         1 1      0.0000
    17 H17     -1.0274  -1.5831  -1.2767   H         1 1      0.0000
    18 CL      -2.9424  -0.7141  -0.8315   C.3       1 1      0.0000
    19 CL2     -3.5439  -0.1597  -2.1099   C.3       1 1      0.0000
    20 H20     -4.6305  -0.2025  -2.0751   H         1 1      0.0000
    21 H21     -3.2501   0.8776  -2.2563   H         1 1      0.0000
    22 H22     -3.2097  -0.7317  -2.9730   H         1 1      0.0000
    23 OL2     -1.0187  -1.1677   1.4423   O.3       1 1      0.0000
    24 H24     -1.8904  -0.9046   1.8282   H         1 1      0.0000
    25 N25     -3.3532  -2.0863  -0.6893   N.3       1 1      0.0000
    26 H26     -2.6621  -2.6573  -1.1758   H         1 1      0.0000
    27 C27     -3.4614  -2.6110   0.6730   C.3       1 1      0.0000
    28 H28     -3.8104  -1.8400   1.3567   H         1 1      0.0000
    29 H29     -4.1632  -3.4415   0.7118   H         1 1      0.0000
    30 H30     -2.4960  -2.9664   1.0273   H         1 1      0.0000
    31 OL1     -3.4066   0.0976   0.2407   O.3       1 1      0.0000
    32 H32     -4.3940   0.0568   0.2802   H         1 1      0.0000
    33 CL4     -0.9542   1.1864   0.8475   C.2       1 1      0.0000
    34 C34     -1.5073   3.3723   0.1109   C.3       1 1      0.0000
    35 H35     -0.8806   3.7191   0.9419   H         1 1      0.0000
    36 H36     -1.2833   3.9998  -0.7605   H         1 1      0.0000
    37 OL3     -0.9338   1.5450   1.9926   O.2       1 1      0.0000
    38 OL4     -1.2210   1.9739  -0.1873   O.3       1 1      0.0000
    39 C39     -2.9392   3.4846   0.4681   C.3       1 1      0.0000
    40 H40     -3.1686   2.8735   1.3385   H         1 1      0.0000
    41 H41     -3.1993   4.5154   0.6996   H         1 1      0.0000
    42 H42     -3.5690   3.1527  -0.3546   H         1 1      0.0000
@<TRIPOS>BOND
     1     1     2   ar
     2     1     6   ar
     3     1    11    1
     4     2     3   ar
     5     2     7    1
     6     3     4   ar
     7     3     8    1
     8     4     5   ar
     9     4    14    1
    10     5     6   ar
    11     5     9    1
    12     6    10    1
    13    11    12    2
    14    11    13    2
    15    14    15    1
    16    14    23    1
    17    14    33    1
    18    15    16    1
    19    15    17    1
    20    15    18    1
    21    18    19    1
    22    18    25    1
    23    18    31    1
    24    19    20    1
    25    19    21    1
    26    19    22    1
    27    23    24    1
    28    25    26    1
    29    25    27    1
    30    27    28    1
    31    27    29    1
    32    27    30    1
    33    31    32    1
    34    33    37    2
    35    33    38    1
    36    34    35    1
    37    34    36    1
    38    34    38    1
    39    34    39    1
    40    39    40    1
    41    39    41    1
    42    39    42    1
@<TRIPOS>SUBSTRUCTURE
     1 1           1 GROUP             0 ****  ****    0  
@<TRIPOS>MOLECULE
Molecule Name_00385
    42    42     1     0     0
SMALL
NO_CHARGES
****
Generated from the CSD

@<TRIPOS>ATOM
     1 C1       3.4839  -0.3338  -0.1550   C.ar      1 1      0.0000
     2 C2       2.6697   0.0485  -1.1979   C.ar      1 1      0.0000
     3 C3       1.3005   0.0479  -1.0025   C.ar      1 1      0.0000
     4 C4       0.7415  -0.3300   0.2132   C.ar      1 1      0.0000
     5 C5       1.6008  -0.7052   1.2400   C.ar      1 1      0.0000
     6 C6       2.9729  -0.7118   1.0667   C.ar      1 1      0.0000
     7 H7       3.0933   0.3439  -2.1522   H         1 1      0.0000
     8 H8       0.6534   0.3504  -1.8185   H         1 1      0.0000
     9 H9       1.1906  -0.9994   2.2003   H         1 1      0.0000
    10 H10      3.6324  -1.0084   1.8756   H         1 1      0.0000
    11 N11      4.9386  -0.3381  -0.3512   N.pl3     1 1      0.0000
    12 O12      5.6470  -0.6796   0.5830   O.2       1 1      0.0000
    13 O13      5.3762  -0.0001  -1.4401   O.2       1 1      0.0000
    14 CL3     -0.7740  -0.3385   0.4184   C.3       1 1      0.0000
    15 CL1     -1.5057  -0.7213  -0.8993   C.3       1 1      0.0000
    16 H16     -1.2918   0.0444  -1.6547   H         1 1      0.0000
    17 H17     -1.0788  -1.6614  -1.2701   H         1 1      0.0000
    18 CL      -3.0316  -0.8951  -0.8014   C.3       1 1      0.0000
    19 CL2     -3.6716  -0.3610  -2.0697   C.3       1 1      0.0000
    20 H20     -4.7543  -0.4595  -2.0264   H         1 1      0.0000
    21 H21     -3.4323   0.6911  -2.2090   H         1 1      0.0000
    22 H22     -3.3162  -0.9076  -2.9407   H         1 1      0.0000
    23 OL2     -1.0677  -1.2697   1.4523   O.3       1 1      0.0000
    24 H24     -1.9484  -1.0548   1.8478   H         1 1      0.0000
    25 N25     -3.3708  -2.2876  -0.6684   N.3       1 1      0.0000
    26 H26     -2.6557  -2.8184  -1.1657   H         1 1      0.0000
    27 C27     -3.4403  -2.8291   0.6900   C.3       1 1      0.0000
    28 H28     -3.8223  -2.0828   1.3835   H         1 1      0.0000
    29 H29     -4.0986  -3.6945   0.7269   H         1 1      0.0000
    30 H30     -2.4551  -3.1377   1.0330   H         1 1      0.0000
    31 OL1     -3.5273  -0.1175   0.2819   O.3       1 1      0.0000
    32 H32     -4.5109  -0.2090   0.3291   H         1 1      0.0000
    33 CL4     -1.1284   1.0897   0.8786   C.2       1 1      0.0000
    34 C34     -1.7984   3.2508   0.1666   C.3       1 1      0.0000
    35 H35     -2.4363   3.6674  -0.6227   H         1 1      0.0000
    36 H36     -2.3606   3.2938   1.1076   H         1 1      0.0000
    37 OL3     -1.1164   1.4388   2.0268   O.2       1 1      0.0000
    38 OL4     -1.4439   1.8715  -0.1468   O.3       1 1      0.0000
    39 C39     -0.5481   4.0344   0.2810   C.3       1 1      0.0000
    40 H40      0.0114   4.0065  -0.6517   H         1 1      0.0000
    41 H41     -0.7649   5.0746   0.5151   H         1 1      0.0000
    42 H42      0.0867   3.6349   1.0691   H         1 1      0.0000
@<TRIPOS>BOND
     1     1     2   ar
     2     1     6   ar
     3     1    11    1
     4     2     3   ar
     5     2     7    1
     6     3     4   ar
     7     3     8    1
     8     4     5   ar
     9     4    14    1
    10     5     6   ar
    11     5     9    1
    12     6    10    1
    13    11    12    2
    14    11    13    2
    15    14    15    1
    16    14    23    1
    17    14    33    1
    18    15    16    1
    19    15    17    1
    20    15    18    1
    21    18    19    1
    22    18    25    1
    23    18    31    1
    24    19    20    1
    25    19    21    1
    26    19    22    1
    27    23    24    1
    28    25    26    1
    29    25    27    1
    30    27    28    1
    31    27    29    1
    32    27    30    1
    33    31    32    1
    34    33    37    2
    35    33    38    1
    36    34    35    1
    37    34    36    1
    38    34    38    1
    39    34    39    1
    40    39    40    1
    41    39    41    1
    42    39    42    1
@<TRIPOS>SUBSTRUCTURE
     1 1           1 GROUP             0 ****  ****    0  
@<TRIPOS>MOLECULE
Molecule Name_00386
    42    42     1     0     0
SMALL
NO_CHARGES
****
Generated from the CSD

@<TRIPOS>ATOM
     1 C1       3.5766  -0.5383  -0.0646   C.ar      1 1      0.0000
     2 C2       3.0044   0.6627  -0.4208   C.ar      1 1      0.0000
     3 C3       1.6470   0.8343  -0.2188   C.ar      1 1      0.0000
     4 C4       0.8619  -0.1744   0.3285   C.ar      1 1      0.0000
     5 C5       1.4815  -1.3694   0.6770   C.ar      1 1      0.0000
     6 C6       2.8373  -1.5626   0.4839   C.ar      1 1      0.0000
     7 H7       3.6056   1.4572  -0.8506   H         1 1      0.0000
     8 H8       1.1901   1.7785  -0.4945   H         1 1      0.0000
     9 H9       0.8926  -2.1707   1.1108   H         1 1      0.0000
    10 H10      3.3082  -2.5006   0.7586   H         1 1      0.0000
    11 N11      5.0162  -0.7322  -0.2755   N.pl3     1 1      0.0000
    12 O12      5.6047   0.0519  -1.0037   O.2       1 1      0.0000
    13 O13      5.5620  -1.6689   0.2866   O.2       1 1      0.0000
    14 CL3     -0.6405   0.0187   0.5388   C.3       1 1      0.0000
    15 CL1     -1.4416  -1.1440  -0.1128   C.3       1 1      0.0000
    16 H16     -1.1742  -1.2024  -1.1748   H         1 1      0.0000
    17 H17     -1.1190  -2.0857   0.3482   H         1 1      0.0000
    18 CL      -2.9740  -1.0574  -0.0011   C.3       1 1      0.0000
    19 CL2     -3.5082  -0.2404  -1.1632   C.3       1 1      0.0000
    20 H20     -4.5743  -0.4115  -1.2972   H         1 1      0.0000
    21 H21     -3.3548   0.8228  -0.9900   H         1 1      0.0000
    22 H22     -3.0029  -0.5094  -2.0884   H         1 1      0.0000
    23 OL2     -0.8795   0.0788   1.9395   O.3       1 1      0.0000
    24 H24     -1.8413   0.2422   2.1021   H         1 1      0.0000
    25 N25     -3.5566  -2.3723  -0.0594   N.3       1 1      0.0000
    26 H26     -4.5659  -2.2566   0.0324   H         1 1      0.0000
    27 C27     -3.3228  -3.1507  -1.2769   C.3       1 1      0.0000
    28 H28     -2.2581  -3.3107  -1.4339   H         1 1      0.0000
    29 H29     -3.8057  -4.1235  -1.2115   H         1 1      0.0000
    30 H30     -3.7197  -2.6332  -2.1478   H         1 1      0.0000
    31 OL1     -3.3226  -0.3699   1.1946   O.3       1 1      0.0000
    32 H32     -4.3067  -0.2918   1.2538   H         1 1      0.0000
    33 CL4     -0.9690   1.3778  -0.1109   C.2       1 1      0.0000
    34 C34     -1.5064   3.6507   0.3033   C.3       1 1      0.0000
    35 H35     -1.2403   4.4089   1.0500   H         1 1      0.0000
    36 H36     -0.9337   3.8639  -0.6077   H         1 1      0.0000
    37 OL3     -1.0198   1.5508  -1.2975   O.2       1 1      0.0000
    38 OL4     -1.1853   2.3181   0.8007   O.3       1 1      0.0000
    39 C39     -2.9580   3.7000   0.0186   C.3       1 1      0.0000
    40 H40     -3.5347   3.5001   0.9194   H         1 1      0.0000
    41 H41     -3.2444   4.6803  -0.3566   H         1 1      0.0000
    42 H42     -3.2298   2.9581  -0.7294   H         1 1      0.0000
@<TRIPOS>BOND
     1     1     2   ar
     2     1     6   ar
     3     1    11    1
     4     2     3   ar
     5     2     7    1
     6     3     4   ar
     7     3     8    1
     8     4     5   ar
     9     4    14    1
    10     5     6   ar
    11     5     9    1
    12     6    10    1
    13    11    12    2
    14    11    13    2
    15    14    15    1
    16    14    23    1
    17    14    33    1
    18    15    16    1
    19    15    17    1
    20    15    18    1
    21    18    19    1
    22    18    25    1
    23    18    31    1
    24    19    20    1
    25    19    21    1
    26    19    22    1
    27    23    24    1
    28    25    26    1
    29    25    27    1
    30    27    28    1
    31    27    29    1
    32    27    30    1
    33    31    32    1
    34    33    37    2
    35    33    38    1
    36    34    35    1
    37    34    36    1
    38    34    38    1
    39    34    39    1
    40    39    40    1
    41    39    41    1
    42    39    42    1
@<TRIPOS>SUBSTRUCTURE
     1 1           1 GROUP             0 ****  ****    0  
@<TRIPOS>MOLECULE
Molecule Name_00387
    42    42     1     0     0
SMALL
NO_CHARGES
****
Generated from the CSD

@<TRIPOS>ATOM
     1 C1       3.4796  -0.2378  -0.2961   C.ar      1 1      0.0000
     2 C2       2.6782  -0.0654  -1.4028   C.ar      1 1      0.0000
     3 C3       1.3056  -0.1060  -1.2382   C.ar      1 1      0.0000
     4 C4       0.7307  -0.3178   0.0100   C.ar      1 1      0.0000
     5 C5       1.5772  -0.4834   1.1006   C.ar      1 1      0.0000
     6 C6       2.9525  -0.4464   0.9590   C.ar      1 1      0.0000
     7 H7       3.1143   0.0988  -2.3827   H         1 1      0.0000
     8 H8       0.6683   0.0317  -2.1049   H         1 1      0.0000
     9 H9       1.1542  -0.6449   2.0865   H         1 1      0.0000
    10 H10      3.6020  -0.5788   1.8180   H         1 1      0.0000
    11 N11      4.9378  -0.1979  -0.4590   N.pl3     1 1      0.0000
    12 O12      5.6347  -0.3525   0.5318   O.2       1 1      0.0000
    13 O13      5.3897  -0.0119  -1.5781   O.2       1 1      0.0000
    14 CL3     -0.7879  -0.3722   0.1825   C.3       1 1      0.0000
    15 CL1     -1.4628  -0.9921  -1.0739   C.3       1 1      0.0000
    16 H16     -1.2792  -0.3339  -1.9317   H         1 1      0.0000
    17 H17     -0.9693  -1.9467  -1.2947   H         1 1      0.0000
    18 CL      -2.9768  -1.2488  -0.9730   C.3       1 1      0.0000
    19 CL2     -3.2058  -2.6799  -0.5225   C.3       1 1      0.0000
    20 H20     -4.2697  -2.8953  -0.4485   H         1 1      0.0000
    21 H21     -2.7663  -3.3815  -1.2284   H         1 1      0.0000
    22 H22     -2.7561  -2.8539   0.4528   H         1 1      0.0000
    23 OL2     -1.0665  -1.1453   1.3432   O.3       1 1      0.0000
    24 H24     -1.7952  -0.7168   1.8565   H         1 1      0.0000
    25 N25     -3.5727  -0.3635  -0.0070   N.3       1 1      0.0000
    26 H26     -4.2697   0.1932  -0.5016   H         1 1      0.0000
    27 C27     -4.2486  -0.9819   1.1348   C.3       1 1      0.0000
    28 H28     -3.5549  -1.5921   1.7095   H         1 1      0.0000
    29 H29     -4.6606  -0.2228   1.7965   H         1 1      0.0000
    30 H30     -5.0645  -1.6196   0.8010   H         1 1      0.0000
    31 OL1     -3.5663  -1.1114  -2.2604   O.3       1 1      0.0000
    32 H32     -4.5350  -1.3013  -2.2002   H         1 1      0.0000
    33 CL4     -1.2227   1.0900   0.4059   C.2       1 1      0.0000
    34 C34     -1.3347   2.8663   1.9739   C.3       1 1      0.0000
    35 H35     -2.2701   3.1393   1.4700   H         1 1      0.0000
    36 H36     -1.4961   2.9662   3.0544   H         1 1      0.0000
    37 OL3     -1.7309   1.7682  -0.4439   O.2       1 1      0.0000
    38 OL4     -0.9654   1.4949   1.6437   O.3       1 1      0.0000
    39 C39     -0.2379   3.7582   1.5356   C.3       1 1      0.0000
    40 H40     -0.0776   3.6739   0.4628   H         1 1      0.0000
    41 H41     -0.4709   4.7964   1.7629   H         1 1      0.0000
    42 H42      0.6921   3.5017   2.0385   H         1 1      0.0000
@<TRIPOS>BOND
     1     1     2   ar
     2     1     6   ar
     3     1    11    1
     4     2     3   ar
     5     2     7    1
     6     3     4   ar
     7     3     8    1
     8     4     5   ar
     9     4    14    1
    10     5     6   ar
    11     5     9    1
    12     6    10    1
    13    11    12    2
    14    11    13    2
    15    14    15    1
    16    14    23    1
    17    14    33    1
    18    15    16    1
    19    15    17    1
    20    15    18    1
    21    18    19    1
    22    18    25    1
    23    18    31    1
    24    19    20    1
    25    19    21    1
    26    19    22    1
    27    23    24    1
    28    25    26    1
    29    25    27    1
    30    27    28    1
    31    27    29    1
    32    27    30    1
    33    31    32    1
    34    33    37    2
    35    33    38    1
    36    34    35    1
    37    34    36    1
    38    34    38    1
    39    34    39    1
    40    39    40    1
    41    39    41    1
    42    39    42    1
@<TRIPOS>SUBSTRUCTURE
     1 1           1 GROUP             0 ****  ****    0  
@<TRIPOS>MOLECULE
Molecule Name_00388
    42    42     1     0     0
SMALL
NO_CHARGES
****
Generated from the CSD

@<TRIPOS>ATOM
     1 C1       2.9503  -0.4252  -0.2173   C.ar      1 1      0.0000
     2 C2       2.5295  -0.6485   1.0749   C.ar      1 1      0.0000
     3 C3       1.2015  -0.4202   1.3867   C.ar      1 1      0.0000
     4 C4       0.2982   0.0275   0.4291   C.ar      1 1      0.0000
     5 C5       0.7653   0.2364  -0.8638   C.ar      1 1      0.0000
     6 C6       2.0889   0.0145  -1.1977   C.ar      1 1      0.0000
     7 H7       3.2247  -0.9961   1.8319   H         1 1      0.0000
     8 H8       0.8624  -0.5966   2.4016   H         1 1      0.0000
     9 H9       0.0799   0.5806  -1.6312   H         1 1      0.0000
    10 H10      2.4410   0.1831  -2.2101   H         1 1      0.0000
    11 N11      4.3578  -0.6630  -0.5595   N.pl3     1 1      0.0000
    12 O12      5.1627  -0.7790   0.3515   O.2       1 1      0.0000
    13 O13      4.6617  -0.7343  -1.7401   O.2       1 1      0.0000
    14 CL3     -1.1664   0.2881   0.7839   C.3       1 1      0.0000
    15 CL1     -2.1002  -0.1391  -0.3839   C.3       1 1      0.0000
    16 H16     -3.0746   0.3460  -0.2496   H         1 1      0.0000
    17 H17     -1.6796   0.2472  -1.3206   H         1 1      0.0000
    18 CL      -2.3287  -1.6518  -0.5505   C.3       1 1      0.0000
    19 CL2     -3.4947  -2.0741   0.3245   C.3       1 1      0.0000
    20 H20     -3.7211  -3.1288   0.1827   H         1 1      0.0000
    21 H21     -3.2652  -1.9151   1.3761   H         1 1      0.0000
    22 H22     -4.3867  -1.5004   0.0818   H         1 1      0.0000
    23 OL2     -1.4641  -0.4432   1.9668   O.3       1 1      0.0000
    24 H24     -2.3971  -0.2609   2.2398   H         1 1      0.0000
    25 N25     -2.6466  -1.9637  -1.9193   N.3       1 1      0.0000
    26 H26     -1.8610  -1.6481  -2.4882   H         1 1      0.0000
    27 C27     -2.8743  -3.3725  -2.2454   C.3       1 1      0.0000
    28 H28     -3.7260  -3.7636  -1.6929   H         1 1      0.0000
    29 H29     -3.0743  -3.4950  -3.3078   H         1 1      0.0000
    30 H30     -2.0024  -3.9725  -1.9934   H         1 1      0.0000
    31 OL1     -1.1804  -2.3564  -0.0936   O.3       1 1      0.0000
    32 H32     -1.3576  -3.3289  -0.1247   H         1 1      0.0000
    33 CL4     -1.2520   1.8018   1.0640   C.2       1 1      0.0000
    34 C34     -0.9928   3.9682   0.1334   C.3       1 1      0.0000
    35 H35     -1.1608   4.4416  -0.8418   H         1 1      0.0000
    36 H36     -1.8209   4.2577   0.7921   H         1 1      0.0000
    37 OL3     -1.5586   2.2631   2.1288   O.2       1 1      0.0000
    38 OL4     -0.9465   2.5179  -0.0111   O.3       1 1      0.0000
    39 C39      0.2966   4.4168   0.7049   C.3       1 1      0.0000
    40 H40      1.1235   4.1433   0.0527   H         1 1      0.0000
    41 H41      0.3075   5.4974   0.8309   H         1 1      0.0000
    42 H42      0.4670   3.9603   1.6777   H         1 1      0.0000
@<TRIPOS>BOND
     1     1     2   ar
     2     1     6   ar
     3     1    11    1
     4     2     3   ar
     5     2     7    1
     6     3     4   ar
     7     3     8    1
     8     4     5   ar
     9     4    14    1
    10     5     6   ar
    11     5     9    1
    12     6    10    1
    13    11    12    2
    14    11    13    2
    15    14    15    1
    16    14    23    1
    17    14    33    1
    18    15    16    1
    19    15    17    1
    20    15    18    1
    21    18    19    1
    22    18    25    1
    23    18    31    1
    24    19    20    1
    25    19    21    1
    26    19    22    1
    27    23    24    1
    28    25    26    1
    29    25    27    1
    30    27    28    1
    31    27    29    1
    32    27    30    1
    33    31    32    1
    34    33    37    2
    35    33    38    1
    36    34    35    1
    37    34    36    1
    38    34    38    1
    39    34    39    1
    40    39    40    1
    41    39    41    1
    42    39    42    1
@<TRIPOS>SUBSTRUCTURE
     1 1           1 GROUP             0 ****  ****    0  
@<TRIPOS>MOLECULE
Molecule Name_00389
    42    42     1     0     0
SMALL
NO_CHARGES
****
Generated from the CSD

@<TRIPOS>ATOM
     1 C1       3.0143  -0.3923  -0.2131   C.ar      1 1      0.0000
     2 C2       2.6097  -0.6100   1.0851   C.ar      1 1      0.0000
     3 C3       1.2742  -0.4352   1.3997   C.ar      1 1      0.0000
     4 C4       0.3476  -0.0461   0.4388   C.ar      1 1      0.0000
     5 C5       0.7991   0.1593  -0.8602   C.ar      1 1      0.0000
     6 C6       2.1299  -0.0097  -1.1969   C.ar      1 1      0.0000
     7 H7       3.3230  -0.9122   1.8447   H         1 1      0.0000
     8 H8       0.9479  -0.6075   2.4195   H         1 1      0.0000
     9 H9       0.0957   0.4583  -1.6301   H         1 1      0.0000
    10 H10      2.4696   0.1555  -2.2141   H         1 1      0.0000
    11 N11      4.4295  -0.5736  -0.5583   N.pl3     1 1      0.0000
    12 O12      5.2428  -0.6367   0.3504   O.2       1 1      0.0000
    13 O13      4.7310  -0.6533  -1.7390   O.2       1 1      0.0000
    14 CL3     -1.1255   0.1557   0.7965   C.3       1 1      0.0000
    15 CL1     -2.0446  -0.3346  -0.3581   C.3       1 1      0.0000
    16 H16     -3.0387   0.1100  -0.2284   H         1 1      0.0000
    17 H17     -1.6452   0.0512  -1.3042   H         1 1      0.0000
    18 CL      -2.2074  -1.8588  -0.4941   C.3       1 1      0.0000
    19 CL2     -3.3448  -2.3156   0.4010   C.3       1 1      0.0000
    20 H20     -3.6158  -3.3468   0.1844   H         1 1      0.0000
    21 H21     -3.0596  -2.2531   1.4491   H         1 1      0.0000
    22 H22     -4.2259  -1.6950   0.2519   H         1 1      0.0000
    23 OL2     -1.3850  -0.5655   1.9944   O.3       1 1      0.0000
    24 H24     -2.3239  -0.4198   2.2690   H         1 1      0.0000
    25 N25     -2.5246  -2.2105  -1.8534   N.3       1 1      0.0000
    26 H26     -2.6073  -3.2266  -1.8880   H         1 1      0.0000
    27 C27     -3.7606  -1.6600  -2.4123   C.3       1 1      0.0000
    28 H28     -3.7364  -0.5723  -2.4046   H         1 1      0.0000
    29 H29     -3.8989  -1.9887  -3.4403   H         1 1      0.0000
    30 H30     -4.6233  -1.9840  -1.8339   H         1 1      0.0000
    31 OL1     -1.0245  -2.5032  -0.0366   O.3       1 1      0.0000
    32 H32     -1.1387  -3.4835  -0.1001   H         1 1      0.0000
    33 CL4     -1.2774   1.6691   1.0487   C.2       1 1      0.0000
    34 C34     -1.1194   3.8269   0.0763   C.3       1 1      0.0000
    35 H35     -1.3128   4.2738  -0.9066   H         1 1      0.0000
    36 H36     -1.9566   4.0916   0.7339   H         1 1      0.0000
    37 OL3     -1.5995   2.1364   2.1063   O.2       1 1      0.0000
    38 OL4     -1.0090   2.3777  -0.0413   O.3       1 1      0.0000
    39 C39      0.1513   4.3432   0.6324   C.3       1 1      0.0000
    40 H40      0.9866   4.0946  -0.0190   H         1 1      0.0000
    41 H41      0.1145   5.4255   0.7381   H         1 1      0.0000
    42 H42      0.3463   3.9134   1.6126   H         1 1      0.0000
@<TRIPOS>BOND
     1     1     2   ar
     2     1     6   ar
     3     1    11    1
     4     2     3   ar
     5     2     7    1
     6     3     4   ar
     7     3     8    1
     8     4     5   ar
     9     4    14    1
    10     5     6   ar
    11     5     9    1
    12     6    10    1
    13    11    12    2
    14    11    13    2
    15    14    15    1
    16    14    23    1
    17    14    33    1
    18    15    16    1
    19    15    17    1
    20    15    18    1
    21    18    19    1
    22    18    25    1
    23    18    31    1
    24    19    20    1
    25    19    21    1
    26    19    22    1
    27    23    24    1
    28    25    26    1
    29    25    27    1
    30    27    28    1
    31    27    29    1
    32    27    30    1
    33    31    32    1
    34    33    37    2
    35    33    38    1
    36    34    35    1
    37    34    36    1
    38    34    38    1
    39    34    39    1
    40    39    40    1
    41    39    41    1
    42    39    42    1
@<TRIPOS>SUBSTRUCTURE
     1 1           1 GROUP             0 ****  ****    0  
@<TRIPOS>MOLECULE
Molecule Name_00390
    42    42     1     0     0
SMALL
NO_CHARGES
****
Generated from the CSD

@<TRIPOS>ATOM
     1 C1       2.8959  -0.4906  -0.2085   C.ar      1 1      0.0000
     2 C2       2.4950  -0.6705   1.0967   C.ar      1 1      0.0000
     3 C3       1.1698  -0.4409   1.4191   C.ar      1 1      0.0000
     4 C4       0.2497  -0.0344   0.4592   C.ar      1 1      0.0000
     5 C5       0.6969   0.1315  -0.8469   C.ar      1 1      0.0000
     6 C6       2.0174  -0.0927  -1.1916   C.ar      1 1      0.0000
     7 H7       3.2035  -0.9856   1.8557   H         1 1      0.0000
     8 H8       0.8464  -0.5831   2.4445   H         1 1      0.0000
     9 H9      -0.0018   0.4428  -1.6162   H         1 1      0.0000
    10 H10      2.3539   0.0420  -2.2142   H         1 1      0.0000
    11 N11      4.3003  -0.7302  -0.5621   N.pl3     1 1      0.0000
    12 O12      5.1188  -0.8076   0.3409   O.2       1 1      0.0000
    13 O13      4.5881  -0.8416  -1.7436   O.2       1 1      0.0000
    14 CL3     -1.2118   0.2281   0.8254   C.3       1 1      0.0000
    15 CL1     -2.1586  -0.2481  -0.3126   C.3       1 1      0.0000
    16 H16     -3.1342   0.2357  -0.1830   H         1 1      0.0000
    17 H17     -1.7533   0.1054  -1.2688   H         1 1      0.0000
    18 CL      -2.3793  -1.7673  -0.4194   C.3       1 1      0.0000
    19 CL2     -3.5225  -2.1656   0.4961   C.3       1 1      0.0000
    20 H20     -3.8050  -3.2032   0.3313   H         1 1      0.0000
    21 H21     -3.2374  -2.0536   1.5401   H         1 1      0.0000
    22 H22     -4.3964  -1.5434   0.3148   H         1 1      0.0000
    23 OL2     -1.4870  -0.4619   2.0381   O.3       1 1      0.0000
    24 H24     -2.4174  -0.2767   2.3178   H         1 1      0.0000
    25 N25     -2.7251  -2.1307  -1.7687   N.3       1 1      0.0000
    26 H26     -3.5736  -1.6179  -2.0084   H         1 1      0.0000
    27 C27     -1.7385  -1.8392  -2.8102   C.3       1 1      0.0000
    28 H28     -0.7304  -2.0392  -2.4533   H         1 1      0.0000
    29 H29     -1.9145  -2.4535  -3.6908   H         1 1      0.0000
    30 H30     -1.7910  -0.7946  -3.1097   H         1 1      0.0000
    31 OL1     -1.2160  -2.4473   0.0367   O.3       1 1      0.0000
    32 H32     -1.3672  -3.4236  -0.0079   H         1 1      0.0000
    33 CL4     -1.3054   1.7503   1.0517   C.2       1 1      0.0000
    34 C34     -1.0766   3.8833   0.0396   C.3       1 1      0.0000
    35 H35     -1.2622   4.3197  -0.9496   H         1 1      0.0000
    36 H36     -1.8976   4.1904   0.6993   H         1 1      0.0000
    37 OL3     -1.6005   2.2476   2.1034   O.2       1 1      0.0000
    38 OL4     -1.0208   2.4291  -0.0530   O.3       1 1      0.0000
    39 C39      0.2172   4.3619   0.5757   C.3       1 1      0.0000
    40 H40      1.0369   4.0710  -0.0780   H         1 1      0.0000
    41 H41      0.2213   5.4464   0.6624   H         1 1      0.0000
    42 H42      0.4050   3.9424   1.5619   H         1 1      0.0000
@<TRIPOS>BOND
     1     1     2   ar
     2     1     6   ar
     3     1    11    1
     4     2     3   ar
     5     2     7    1
     6     3     4   ar
     7     3     8    1
     8     4     5   ar
     9     4    14    1
    10     5     6   ar
    11     5     9    1
    12     6    10    1
    13    11    12    2
    14    11    13    2
    15    14    15    1
    16    14    23    1
    17    14    33    1
    18    15    16    1
    19    15    17    1
    20    15    18    1
    21    18    19    1
    22    18    25    1
    23    18    31    1
    24    19    20    1
    25    19    21    1
    26    19    22    1
    27    23    24    1
    28    25    26    1
    29    25    27    1
    30    27    28    1
    31    27    29    1
    32    27    30    1
    33    31    32    1
    34    33    37    2
    35    33    38    1
    36    34    35    1
    37    34    36    1
    38    34    38    1
    39    34    39    1
    40    39    40    1
    41    39    41    1
    42    39    42    1
@<TRIPOS>SUBSTRUCTURE
     1 1           1 GROUP             0 ****  ****    0  
@<TRIPOS>MOLECULE
Molecule Name_00391
    42    42     1     0     0
SMALL
NO_CHARGES
****
Generated from the CSD

@<TRIPOS>ATOM
     1 C1       3.5561  -0.4559  -0.0649   C.ar      1 1      0.0000
     2 C2       2.6841  -0.2036  -1.1006   C.ar      1 1      0.0000
     3 C3       1.3296  -0.1498  -0.8264   C.ar      1 1      0.0000
     4 C4       0.8417  -0.3464   0.4607   C.ar      1 1      0.0000
     5 C5       1.7578  -0.5948   1.4769   C.ar      1 1      0.0000
     6 C6       3.1165  -0.6528   1.2253   C.ar      1 1      0.0000
     7 H7       3.0518  -0.0503  -2.1098   H         1 1      0.0000
     8 H8       0.6372   0.0511  -1.6366   H         1 1      0.0000
     9 H9       1.4037  -0.7465   2.4911   H         1 1      0.0000
    10 H10      3.8208  -0.8491   2.0270   H         1 1      0.0000
    11 N11      4.9959  -0.5165  -0.3442   N.pl3     1 1      0.0000
    12 O12      5.3555  -0.6197  -1.5067   O.2       1 1      0.0000
    13 O13      5.7705  -0.4609   0.5981   O.2       1 1      0.0000
    14 CL3     -0.6584  -0.2962   0.7543   C.3       1 1      0.0000
    15 CL1     -1.4736  -0.8488  -0.4492   C.3       1 1      0.0000
    16 H16     -1.2648  -0.2283  -1.3290   H         1 1      0.0000
    17 H17     -1.1091  -1.8578  -0.6783   H         1 1      0.0000
    18 CL      -2.9987  -0.9236  -0.2576   C.3       1 1      0.0000
    19 CL2     -3.6162   0.3923  -0.6941   C.3       1 1      0.0000
    20 H20     -4.6606   0.2565  -0.9670   H         1 1      0.0000
    21 H21     -3.5680   1.1258   0.1080   H         1 1      0.0000
    22 H22     -3.0906   0.7977  -1.5562   H         1 1      0.0000
    23 OL2     -0.8981  -1.0646   1.9268   O.3       1 1      0.0000
    24 H24     -1.8579  -1.0165   2.1606   H         1 1      0.0000
    25 N25     -3.5545  -1.9798  -1.0623   N.3       1 1      0.0000
    26 H26     -4.5592  -1.9924  -0.8867   H         1 1      0.0000
    27 C27     -3.3732  -1.8784  -2.5114   C.3       1 1      0.0000
    28 H28     -2.3159  -1.8606  -2.7675   H         1 1      0.0000
    29 H29     -3.8302  -2.7262  -3.0175   H         1 1      0.0000
    30 H30     -3.8301  -0.9684  -2.8945   H         1 1      0.0000
    31 OL1     -3.2938  -1.0913   1.1239   O.3       1 1      0.0000
    32 H32     -4.2745  -1.1138   1.2502   H         1 1      0.0000
    33 CL4     -0.9686   1.1896   1.0248   C.2       1 1      0.0000
    34 C34     -1.9032   3.1442   0.0592   C.3       1 1      0.0000
    35 H35     -2.8464   3.0466   0.6108   H         1 1      0.0000
    36 H36     -1.2515   3.8181   0.6288   H         1 1      0.0000
    37 OL3     -0.9373   1.6856   2.1173   O.2       1 1      0.0000
    38 OL4     -1.2703   1.8393  -0.0928   O.3       1 1      0.0000
    39 C39     -2.1547   3.6955  -1.2911   C.3       1 1      0.0000
    40 H40     -2.8092   3.0387  -1.8602   H         1 1      0.0000
    41 H41     -2.6282   4.6729  -1.2266   H         1 1      0.0000
    42 H42     -1.2231   3.8060  -1.8422   H         1 1      0.0000
@<TRIPOS>BOND
     1     1     2   ar
     2     1     6   ar
     3     1    11    1
     4     2     3   ar
     5     2     7    1
     6     3     4   ar
     7     3     8    1
     8     4     5   ar
     9     4    14    1
    10     5     6   ar
    11     5     9    1
    12     6    10    1
    13    11    12    2
    14    11    13    2
    15    14    15    1
    16    14    23    1
    17    14    33    1
    18    15    16    1
    19    15    17    1
    20    15    18    1
    21    18    19    1
    22    18    25    1
    23    18    31    1
    24    19    20    1
    25    19    21    1
    26    19    22    1
    27    23    24    1
    28    25    26    1
    29    25    27    1
    30    27    28    1
    31    27    29    1
    32    27    30    1
    33    31    32    1
    34    33    37    2
    35    33    38    1
    36    34    35    1
    37    34    36    1
    38    34    38    1
    39    34    39    1
    40    39    40    1
    41    39    41    1
    42    39    42    1
@<TRIPOS>SUBSTRUCTURE
     1 1           1 GROUP             0 ****  ****    0  
@<TRIPOS>MOLECULE
Molecule Name_00392
    42    42     1     0     0
SMALL
NO_CHARGES
****
Generated from the CSD

@<TRIPOS>ATOM
     1 C1       3.5743  -0.3519  -0.2072   C.ar      1 1      0.0000
     2 C2       2.7722   0.2078  -1.1767   C.ar      1 1      0.0000
     3 C3       1.4007   0.1728  -1.0016   C.ar      1 1      0.0000
     4 C4       0.8276  -0.4131   0.1216   C.ar      1 1      0.0000
     5 C5       1.6750  -0.9631   1.0770   C.ar      1 1      0.0000
     6 C6       3.0492  -0.9391   0.9224   C.ar      1 1      0.0000
     7 H7       3.2068   0.6665  -2.0587   H         1 1      0.0000
     8 H8       0.7630   0.6141  -1.7598   H         1 1      0.0000
     9 H9       1.2536  -1.4216   1.9654   H         1 1      0.0000
    10 H10      3.6993  -1.3733   1.6748   H         1 1      0.0000
    11 N11      5.0314  -0.3217  -0.3829   N.pl3     1 1      0.0000
    12 O12      5.4967   0.4299  -1.2254   O.2       1 1      0.0000
    13 O13      5.7139  -1.0494   0.3213   O.2       1 1      0.0000
    14 CL3     -0.6903  -0.4577   0.3030   C.3       1 1      0.0000
    15 CL1     -1.4049  -0.6016  -1.0707   C.3       1 1      0.0000
    16 H16     -1.1950   0.2920  -1.6708   H         1 1      0.0000
    17 H17     -0.9615  -1.4525  -1.6024   H         1 1      0.0000
    18 CL      -2.9290  -0.8089  -1.0234   C.3       1 1      0.0000
    19 CL2     -3.2257  -2.2972  -1.0482   C.3       1 1      0.0000
    20 H20     -4.2981  -2.4773  -1.0135   H         1 1      0.0000
    21 H21     -2.8346  -2.7533  -1.9553   H         1 1      0.0000
    22 H22     -2.7705  -2.7955  -0.1949   H         1 1      0.0000
    23 OL2     -0.9948  -1.5569   1.1524   O.3       1 1      0.0000
    24 H24     -1.4096  -1.2231   1.9859   H         1 1      0.0000
    25 N25     -3.4738  -0.2533   0.1876   N.3       1 1      0.0000
    26 H26     -4.1627   0.4466  -0.0880   H         1 1      0.0000
    27 C27     -4.1446  -1.1791   1.1019   C.3       1 1      0.0000
    28 H28     -3.4616  -1.9600   1.4298   H         1 1      0.0000
    29 H29     -4.5083  -0.6550   1.9832   H         1 1      0.0000
    30 H30     -4.9940  -1.6541   0.6154   H         1 1      0.0000
    31 OL1     -3.5196  -0.2407  -2.1862   O.3       1 1      0.0000
    32 H32     -4.4961  -0.3963  -2.1683   H         1 1      0.0000
    33 CL4     -1.0534   0.8668   1.0037   C.2       1 1      0.0000
    34 C34     -1.0409   3.2314   0.8169   C.3       1 1      0.0000
    35 H35     -0.8623   3.2312   1.8993   H         1 1      0.0000
    36 H36     -0.3879   3.9919   0.3711   H         1 1      0.0000
    37 OL3     -1.5552   0.9254   2.0924   O.2       1 1      0.0000
    38 OL4     -0.7427   1.9188   0.2562   O.3       1 1      0.0000
    39 C39     -2.4592   3.5439   0.5322   C.3       1 1      0.0000
    40 H40     -3.1154   2.8004   0.9798   H         1 1      0.0000
    41 H41     -2.7276   4.5187   0.9340   H         1 1      0.0000
    42 H42     -2.6436   3.5569  -0.5400   H         1 1      0.0000
@<TRIPOS>BOND
     1     1     2   ar
     2     1     6   ar
     3     1    11    1
     4     2     3   ar
     5     2     7    1
     6     3     4   ar
     7     3     8    1
     8     4     5   ar
     9     4    14    1
    10     5     6   ar
    11     5     9    1
    12     6    10    1
    13    11    12    2
    14    11    13    2
    15    14    15    1
    16    14    23    1
    17    14    33    1
    18    15    16    1
    19    15    17    1
    20    15    18    1
    21    18    19    1
    22    18    25    1
    23    18    31    1
    24    19    20    1
    25    19    21    1
    26    19    22    1
    27    23    24    1
    28    25    26    1
    29    25    27    1
    30    27    28    1
    31    27    29    1
    32    27    30    1
    33    31    32    1
    34    33    37    2
    35    33    38    1
    36    34    35    1
    37    34    36    1
    38    34    38    1
    39    34    39    1
    40    39    40    1
    41    39    41    1
    42    39    42    1
@<TRIPOS>SUBSTRUCTURE
     1 1           1 GROUP             0 ****  ****    0  
@<TRIPOS>MOLECULE
Molecule Name_00393
    42    42     1     0     0
SMALL
NO_CHARGES
****
Generated from the CSD

@<TRIPOS>ATOM
     1 C1       3.5289  -0.2792  -0.2166   C.ar      1 1      0.0000
     2 C2       2.7111   0.2387  -1.1961   C.ar      1 1      0.0000
     3 C3       1.3412   0.1709  -1.0180   C.ar      1 1      0.0000
     4 C4       0.7852  -0.4065   0.1181   C.ar      1 1      0.0000
     5 C5       1.6480  -0.9137   1.0833   C.ar      1 1      0.0000
     6 C6       3.0209  -0.8564   0.9259   C.ar      1 1      0.0000
     7 H7       3.1323   0.6902  -2.0883   H         1 1      0.0000
     8 H8       0.6911   0.5791  -1.7841   H         1 1      0.0000
     9 H9       1.2401  -1.3647   1.9818   H         1 1      0.0000
    10 H10      3.6832  -1.2574   1.6860   H         1 1      0.0000
    11 N11      4.9844  -0.2138  -0.3953   N.pl3     1 1      0.0000
    12 O12      5.4286   0.5321  -1.2542   O.2       1 1      0.0000
    13 O13      5.6869  -0.9083   0.3227   O.2       1 1      0.0000
    14 CL3     -0.7308  -0.4877   0.3030   C.3       1 1      0.0000
    15 CL1     -1.4428  -0.6794  -1.0661   C.3       1 1      0.0000
    16 H16     -1.2495   0.2024  -1.6888   H         1 1      0.0000
    17 H17     -0.9841  -1.5353  -1.5764   H         1 1      0.0000
    18 CL      -2.9629  -0.9134  -1.0126   C.3       1 1      0.0000
    19 CL2     -3.2323  -2.4070  -0.9997   C.3       1 1      0.0000
    20 H20     -4.3012  -2.6057  -0.9598   H         1 1      0.0000
    21 H21     -2.8331  -2.8786  -1.8953   H         1 1      0.0000
    22 H22     -2.7679  -2.8752  -0.1344   H         1 1      0.0000
    23 OL2     -1.0049  -1.5765   1.1758   O.3       1 1      0.0000
    24 H24     -1.3871  -1.2324   2.0206   H         1 1      0.0000
    25 N25     -3.5176  -0.3375   0.1843   N.3       1 1      0.0000
    26 H26     -4.2193   0.3425  -0.1084   H         1 1      0.0000
    27 C27     -4.1711  -1.2521   1.1221   C.3       1 1      0.0000
    28 H28     -3.4738  -2.0118   1.4691   H         1 1      0.0000
    29 H29     -4.5442  -0.7126   1.9902   H         1 1      0.0000
    30 H30     -5.0117  -1.7546   0.6483   H         1 1      0.0000
    31 OL1     -3.5641  -0.3856  -2.1890   O.3       1 1      0.0000
    32 H32     -4.5376  -0.5585  -2.1666   H         1 1      0.0000
    33 CL4     -1.1283   0.8411   0.9764   C.2       1 1      0.0000
    34 C34     -1.8540   3.0683   0.6030   C.3       1 1      0.0000
    35 H35     -2.4982   3.5858  -0.1186   H         1 1      0.0000
    36 H36     -2.4235   2.9486   1.5330   H         1 1      0.0000
    37 OL3     -1.1337   1.0067   2.1651   O.2       1 1      0.0000
    38 OL4     -1.4588   1.7649   0.0822   O.3       1 1      0.0000
    39 C39     -0.6270   3.8575   0.8520   C.3       1 1      0.0000
    40 H40     -0.0608   3.9906  -0.0674   H         1 1      0.0000
    41 H41     -0.8745   4.8422   1.2431   H         1 1      0.0000
    42 H42      0.0135   3.3568   1.5751   H         1 1      0.0000
@<TRIPOS>BOND
     1     1     2   ar
     2     1     6   ar
     3     1    11    1
     4     2     3   ar
     5     2     7    1
     6     3     4   ar
     7     3     8    1
     8     4     5   ar
     9     4    14    1
    10     5     6   ar
    11     5     9    1
    12     6    10    1
    13    11    12    2
    14    11    13    2
    15    14    15    1
    16    14    23    1
    17    14    33    1
    18    15    16    1
    19    15    17    1
    20    15    18    1
    21    18    19    1
    22    18    25    1
    23    18    31    1
    24    19    20    1
    25    19    21    1
    26    19    22    1
    27    23    24    1
    28    25    26    1
    29    25    27    1
    30    27    28    1
    31    27    29    1
    32    27    30    1
    33    31    32    1
    34    33    37    2
    35    33    38    1
    36    34    35    1
    37    34    36    1
    38    34    38    1
    39    34    39    1
    40    39    40    1
    41    39    41    1
    42    39    42    1
@<TRIPOS>SUBSTRUCTURE
     1 1           1 GROUP             0 ****  ****    0  
