# created with PyMOL 2.3.4
@<TRIPOS>MOLECULE
Molecule Name
36 36 1                 
SMALL
USER_CHARGES
@<TRIPOS>ATOM
1	  CL	-3.002	-0.816	-0.733	C.3	1	RES1	0.000	
2	 CL1	-1.466	-0.667	-0.821	C.3	1	RES1	0.000	
3	 CL2	-3.586	-1.109	-2.125	C.3	1	RES1	0.000	
4	 CL3	-0.717	-0.334	0.505	C.3	1	RES1	0.000	
5	 CL4	-1.124	1.069	1.062	C.2	1	RES1	0.000	
6	 OL1	-3.503	0.430	-0.261	O.3	1	RES1	0.000	
7	 OL2	-0.983	-1.308	1.483	O.3	1	RES1	0.000	
8	 OL3	-1.511	1.265	2.189	O.co2	1	RES1	0.000	
9	 OL4	-0.957	2.038	0.138	O.3	1	RES1	0.000	
10	  C1	3.561	-0.387	-0.142	C.2	1	RES1	0.000	
11	  C2	2.765	0.382	-0.991	C.2	1	RES1	0.000	
12	  C3	1.389	0.407	-0.781	C.2	1	RES1	0.000	
13	  C4	0.803	-0.331	0.261	C.2	1	RES1	0.000	
14	  C5	1.632	-1.091	1.101	C.2	1	RES1	0.000	
15	  C6	3.012	-1.122	0.906	C.2	1	RES1	0.000	
16	 N11	5.015	-0.420	-0.360	N.pl3	1	RES1	0.000	
17	 O12	5.698	-1.108	0.402	O.2	1	RES1	0.000	
18	 O13	5.473	0.242	-1.295	O.2	1	RES1	0.000	
19	 C34	-1.328	3.380	0.545	C.3	1	RES1	0.000	
20	 C39	-1.076	4.306	-0.629	C.3	1	RES1	0.000	
21	  H7	3.223	0.946	-1.794	 H	1	RES1	0.000	
22	  H8	0.774	1.023	-1.426	 H	1	RES1	0.000	
23	  H9	1.183	-1.658	1.906	 H	1	RES1	0.000	
24	 H10	3.658	-1.705	1.551	 H	1	RES1	0.000	
25	 H16	-1.261	0.105	-1.565	 H	1	RES1	0.000	
26	 H17	-1.044	-1.605	-1.195	 H	1	RES1	0.000	
27	 H20	-4.675	-1.229	-2.063	 H	1	RES1	0.000	
28	 H21	-3.365	-0.279	-2.803	 H	1	RES1	0.000	
29	 H22	-3.173	-2.023	-2.558	 H	1	RES1	0.000	
30	 H24	-1.948	-1.495	1.437	 H	1	RES1	0.000	
31	 H32	-4.451	0.491	-0.442	 H	1	RES1	0.000	
32	 H35	-2.381	3.367	0.843	 H	1	RES1	0.000	
33	 H36	-0.733	3.654	1.422	 H	1	RES1	0.000	
34	 H40	-1.674	4.012	-1.497	 H	1	RES1	0.000	
35	 H41	-1.349	5.330	-0.354	 H	1	RES1	0.000	
36	 H42	-0.020	4.301	-0.916	 H	1	RES1	0.000	
@<TRIPOS>BOND
1 1 3 1
2 1 6 1
3 1 2 1
4 2 25 1
5 2 26 1
6 3 27 1
7 3 28 1
8 3 29 1
9 2 4 1
10 4 5 1
11 4 7 1
12 5 8 2
13 5 9 1
14 6 31 1
15 7 30 1
16 10 11 ar
17 10 15 ar
18 10 16 1
19 11 12 ar
20 11 21 1
21 12 13 ar
22 12 22 1
23 4 13 1
24 13 14 ar
25 14 15 ar
26 14 23 1
27 15 24 1
28 16 17 2
29 16 18 2
30 9 19 1
31 19 20 1
32 19 32 1
33 19 33 1
34 20 34 1
35 20 35 1
36 20 36 1
@<TRIPOS>SUBSTRUCTURE
1	RES1	1	GROUP	1 ****	RES
