@<TRIPOS>MOLECULE
Molecule Name_00001_00001
    38    38     1     0     0
SMALL
NO_CHARGES
****
Generated from the CSD

@<TRIPOS>ATOM
     1 C5      -5.7084   0.5577  -0.2110   C.ar      1 1      0.0000
     2 C4      -5.0277  -0.1023  -1.2404   C.ar      1 1      0.0000
     3 C3      -3.7149  -0.5431  -1.0418   C.ar      1 1      0.0000
     4 C8      -3.0692  -0.3290   0.1859   C.ar      1 1      0.0000
     5 C7      -3.7562   0.3407   1.2099   C.ar      1 1      0.0000
     6 C6      -5.0690   0.7829   1.0129   C.ar      1 1      0.0000
     7 H4      -5.5151  -0.2662  -2.1961   H         1 1      0.0000
     8 C9      -1.6699  -0.8724   0.4238   C.3       1 1      0.0000
     9 H7      -3.2599   0.5305   2.1590   H         1 1      0.0000
    10 H6      -5.5883   1.3070   1.8088   H         1 1      0.0000
    11 C10     -0.6154   0.1444  -0.0772   C.3       1 1      0.0000
    12 H9A     -1.5095  -1.0657   1.4903   H         1 1      0.0000
    13 C11      0.8049  -0.3070   0.1164   C.3       1 1      0.0000
    14 C12      1.9015   0.6355  -0.4075   C.3       1 1      0.0000
    15 H12A     1.8339   1.5949   0.1246   H         1 1      0.0000
    16 C13      3.3381   0.1604  -0.3635   C.2       1 1      0.0000
    17 C14      4.3981   1.1026  -0.8550   C.3       1 1      0.0000
    18 H14B     4.0230   1.6366  -1.7352   H         1 1      0.0000
    19 H14A     5.3004   0.5584  -1.1480   H         1 1      0.0000
    20 N        3.6140  -1.0184   0.1113   N.pl3     1 1      0.0000
    21 HN       2.7783  -1.5497   0.4618   H         1 1      0.0000
    22 C        4.9628  -1.6512   0.2022   C.3       1 1      0.0000
    23 H1A      4.8478  -2.5872   0.7506   H         1 1      0.0000
    24 H1C      5.3432  -1.8626  -0.8023   H         1 1      0.0000
    25 H1B      5.6566  -0.9970   0.7358   H         1 1      0.0000
    26 H10A    -0.7743   0.3567  -1.1468   H         1 1      0.0000
    27 H10B    -0.7505   1.1095   0.4367   H         1 1      0.0000
    28 H9B     -1.5338  -1.8250  -0.1001   H         1 1      0.0000
    29 H5      -6.7254   0.9032  -0.3653   H         1 1      0.0000
    30 H3      -3.1859  -1.0425  -1.8505   H         1 1      0.0000
    31 H12B     1.6645   0.8756  -1.4572   H         1 1      0.0000
    32 C15      4.7580   2.1490   0.2540   C.3       1 1      0.0000
    33 H15A     3.8868   2.7501   0.5322   H         1 1      0.0000
    34 H15B     5.1515   1.6611   1.1508   H         1 1      0.0000
    35 H15C     5.5260   2.8231  -0.1368   H         1 1      0.0000
    36 O2       1.0199  -0.5109   1.4990   O.3       1 1      0.0000
    37 H21      0.5050  -1.3046   1.8006   H         1 1      0.0000
    38 H22      0.9217  -1.2667  -0.3849   H         1 1      0.0000
@<TRIPOS>BOND
     1     1     2   ar
     2     1     6   ar
     3     1    29    1
     4     2     3   ar
     5     2     7    1
     6     3     4   ar
     7     3    30    1
     8     4     5   ar
     9     4     8    1
    10     5     6   ar
    11     5     9    1
    12     6    10    1
    13     8    11    1
    14     8    12    1
    15     8    28    1
    16    11    13    1
    17    11    26    1
    18    11    27    1
    19    13    14    1
    20    14    15    1
    21    14    16    1
    22    14    31    1
    23    16    17    1
    24    16    20    2
    25    17    18    1
    26    17    19    1
    27    17    32    1
    28    20    21    1
    29    20    22    1
    30    22    23    1
    31    22    24    1
    32    22    25    1
    33    32    33    1
    34    32    34    1
    35    32    35    1
    36    13    36    1
    37    36    37    1
    38    13    38    1
@<TRIPOS>SUBSTRUCTURE
     1 1           1 GROUP             0 ****  ****    0  
@<TRIPOS>MOLECULE
Molecule Name_00001_00002
    38    38     1     0     0
SMALL
NO_CHARGES
****
Generated from the CSD

@<TRIPOS>ATOM
     1 C5      -5.6913   0.6081  -0.1969   C.ar      1 1      0.0000
     2 C4      -4.9383   0.2877  -1.3322   C.ar      1 1      0.0000
     3 C3      -3.6297  -0.1870  -1.1937   C.ar      1 1      0.0000
     4 C8      -3.0602  -0.3462   0.0792   C.ar      1 1      0.0000
     5 C7      -3.8193  -0.0149   1.2120   C.ar      1 1      0.0000
     6 C6      -5.1281   0.4606   1.0754   C.ar      1 1      0.0000
     7 H4      -5.3665   0.4144  -2.3214   H         1 1      0.0000
     8 C9      -1.6652  -0.9302   0.2299   C.3       1 1      0.0000
     9 H7      -3.3825  -0.1148   2.2031   H         1 1      0.0000
    10 H6      -5.7036   0.7215   1.9578   H         1 1      0.0000
    11 C10     -0.6064   0.1939   0.1195   C.3       1 1      0.0000
    12 H9A     -1.5619  -1.4321   1.1984   H         1 1      0.0000
    13 C11      0.8100  -0.2890   0.2567   C.3       1 1      0.0000
    14 C12      1.9138   0.7712   0.1050   C.3       1 1      0.0000
    15 H12A     1.7947   1.5280   0.8932   H         1 1      0.0000
    16 C13      3.3557   0.3103   0.0936   C.2       1 1      0.0000
    17 C14      4.4211   1.3604  -0.0296   C.3       1 1      0.0000
    18 H14B     5.3607   0.9669   0.3740   H         1 1      0.0000
    19 H14A     4.1562   2.2556   0.5403   H         1 1      0.0000
    20 N        3.6299  -0.9554   0.2123   N.pl3     1 1      0.0000
    21 HN       2.7873  -1.5703   0.3371   H         1 1      0.0000
    22 C        4.9849  -1.5811   0.1933   C.3       1 1      0.0000
    23 H1A      4.8593  -2.6385   0.4304   H         1 1      0.0000
    24 H1C      5.4267  -1.4818  -0.8034   H         1 1      0.0000
    25 H1B      5.6324  -1.1130   0.9387   H         1 1      0.0000
    26 H10A    -0.7084   0.7149  -0.8462   H         1 1      0.0000
    27 H10B    -0.7920   0.9613   0.8879   H         1 1      0.0000
    28 H9B     -1.4784  -1.6827  -0.5441   H         1 1      0.0000
    29 H5      -6.7051   0.9798  -0.3033   H         1 1      0.0000
    30 H3      -3.0443  -0.4204  -2.0804   H         1 1      0.0000
    31 H12B     1.7320   1.3124  -0.8382   H         1 1      0.0000
    32 C15      4.6398   1.7454  -1.5323   C.3       1 1      0.0000
    33 H15A     4.9600   0.8811  -2.1223   H         1 1      0.0000
    34 H15B     3.7284   2.1577  -1.9757   H         1 1      0.0000
    35 H15C     5.4247   2.5054  -1.5882   H         1 1      0.0000
    36 O2       0.9500  -0.8950   1.5266   O.3       1 1      0.0000
    37 H21      0.4361  -1.7445   1.5465   H         1 1      0.0000
    38 H22      0.9765  -1.0551  -0.4991   H         1 1      0.0000
@<TRIPOS>BOND
     1     1     2   ar
     2     1     6   ar
     3     1    29    1
     4     2     3   ar
     5     2     7    1
     6     3     4   ar
     7     3    30    1
     8     4     5   ar
     9     4     8    1
    10     5     6   ar
    11     5     9    1
    12     6    10    1
    13     8    11    1
    14     8    12    1
    15     8    28    1
    16    11    13    1
    17    11    26    1
    18    11    27    1
    19    13    14    1
    20    14    15    1
    21    14    16    1
    22    14    31    1
    23    16    17    1
    24    16    20    2
    25    17    18    1
    26    17    19    1
    27    17    32    1
    28    20    21    1
    29    20    22    1
    30    22    23    1
    31    22    24    1
    32    22    25    1
    33    32    33    1
    34    32    34    1
    35    32    35    1
    36    13    36    1
    37    36    37    1
    38    13    38    1
@<TRIPOS>SUBSTRUCTURE
     1 1           1 GROUP             0 ****  ****    0  
@<TRIPOS>MOLECULE
Molecule Name_00001_00003
    38    38     1     0     0
SMALL
NO_CHARGES
****
Generated from the CSD

@<TRIPOS>ATOM
     1 C5      -5.6383   0.4763   0.0975   C.ar      1 1      0.0000
     2 C4      -4.7205   1.5210   0.2549   C.ar      1 1      0.0000
     3 C3      -3.3563   1.2921   0.0460   C.ar      1 1      0.0000
     4 C8      -2.8953   0.0184  -0.3217   C.ar      1 1      0.0000
     5 C7      -3.8215  -1.0253  -0.4695   C.ar      1 1      0.0000
     6 C6      -5.1862  -0.7986  -0.2603   C.ar      1 1      0.0000
     7 H4      -5.0655   2.5078   0.5465   H         1 1      0.0000
     8 C9      -1.4224  -0.2102  -0.6186   C.3       1 1      0.0000
     9 H7      -3.4748  -2.0217  -0.7346   H         1 1      0.0000
    10 H6      -5.8931  -1.6148  -0.3695   H         1 1      0.0000
    11 C10     -0.6633  -0.5360   0.6908   C.3       1 1      0.0000
    12 H9A     -1.2975  -1.0375  -1.3259   H         1 1      0.0000
    13 C11      0.8070  -0.7788   0.4971   C.3       1 1      0.0000
    14 C12      1.6566   0.4397   0.0985   C.3       1 1      0.0000
    15 H12A     1.5965   1.1948   0.8950   H         1 1      0.0000
    16 C13      3.1140   0.2175  -0.2456   C.2       1 1      0.0000
    17 C14      3.9349   1.4209  -0.6076   C.3       1 1      0.0000
    18 H14B     3.3255   2.1019  -1.2122   H         1 1      0.0000
    19 H14A     4.8099   1.1347  -1.1981   H         1 1      0.0000
    20 N        3.6132  -0.9823  -0.1968   N.pl3     1 1      0.0000
    21 HN       2.9346  -1.7204   0.1168   H         1 1      0.0000
    22 C        5.0127  -1.3813  -0.5287   C.3       1 1      0.0000
    23 H1A      5.1208  -2.4360  -0.2721   H         1 1      0.0000
    24 H1C      5.1937  -1.2472  -1.6001   H         1 1      0.0000
    25 H1B      5.7262  -0.7888   0.0490   H         1 1      0.0000
    26 H10A    -0.7920   0.2840   1.4157   H         1 1      0.0000
    27 H10B    -1.1058  -1.4237   1.1704   H         1 1      0.0000
    28 H9B     -0.9818   0.6792  -1.0824   H         1 1      0.0000
    29 H5      -6.6962   0.6519   0.2629   H         1 1      0.0000
    30 H3      -2.6461   2.1045   0.1842   H         1 1      0.0000
    31 H12B     1.1783   0.9109  -0.7760   H         1 1      0.0000
    32 C15      4.4019   2.1743   0.6841   C.3       1 1      0.0000
    33 H15A     3.5477   2.5236   1.2723   H         1 1      0.0000
    34 H15B     5.0275   1.5355   1.3148   H         1 1      0.0000
    35 H15C     4.9903   3.0473   0.3867   H         1 1      0.0000
    36 O2       1.3302  -1.3090   1.6990   O.3       1 1      0.0000
    37 H21      0.8690  -2.1620   1.9128   H         1 1      0.0000
    38 H22      0.9215  -1.5341  -0.2790   H         1 1      0.0000
@<TRIPOS>BOND
     1     1     2   ar
     2     1     6   ar
     3     1    29    1
     4     2     3   ar
     5     2     7    1
     6     3     4   ar
     7     3    30    1
     8     4     5   ar
     9     4     8    1
    10     5     6   ar
    11     5     9    1
    12     6    10    1
    13     8    11    1
    14     8    12    1
    15     8    28    1
    16    11    13    1
    17    11    26    1
    18    11    27    1
    19    13    14    1
    20    14    15    1
    21    14    16    1
    22    14    31    1
    23    16    17    1
    24    16    20    2
    25    17    18    1
    26    17    19    1
    27    17    32    1
    28    20    21    1
    29    20    22    1
    30    22    23    1
    31    22    24    1
    32    22    25    1
    33    32    33    1
    34    32    34    1
    35    32    35    1
    36    13    36    1
    37    36    37    1
    38    13    38    1
@<TRIPOS>SUBSTRUCTURE
     1 1           1 GROUP             0 ****  ****    0  
@<TRIPOS>MOLECULE
Molecule Name_00001_00004
    38    38     1     0     0
SMALL
NO_CHARGES
****
Generated from the CSD

@<TRIPOS>ATOM
     1 C5      -5.6025   0.4886   0.0835   C.ar      1 1      0.0000
     2 C4      -4.7038   1.3805   0.6797   C.ar      1 1      0.0000
     3 C3      -3.3272   1.2197   0.4893   C.ar      1 1      0.0000
     4 C8      -2.8347   0.1671  -0.2978   C.ar      1 1      0.0000
     5 C7      -3.7422  -0.7274  -0.8852   C.ar      1 1      0.0000
     6 C6      -5.1194  -0.5687  -0.6954   C.ar      1 1      0.0000
     7 H4      -5.0738   2.1932   1.2964   H         1 1      0.0000
     8 C9      -1.3437   0.0374  -0.5624   C.3       1 1      0.0000
     9 H7      -3.3723  -1.5590  -1.4809   H         1 1      0.0000
    10 H6      -5.8122  -1.2709  -1.1477   H         1 1      0.0000
    11 C10     -0.6726  -0.7691   0.5760   C.3       1 1      0.0000
    12 H9A     -1.1662  -0.4678  -1.5184   H         1 1      0.0000
    13 C11      0.8089  -0.9505   0.4013   C.3       1 1      0.0000
    14 C12      1.6759   0.3119   0.5438   C.3       1 1      0.0000
    15 H12A     1.5575   0.7154   1.5594   H         1 1      0.0000
    16 C13      3.1545   0.2061   0.2368   C.2       1 1      0.0000
    17 C14      3.9905   1.4412   0.4057   C.3       1 1      0.0000
    18 H14B     5.0361   1.1489   0.5535   H         1 1      0.0000
    19 H14A     3.6716   2.0131   1.2817   H         1 1      0.0000
    20 N        3.6567  -0.9345  -0.1347   N.pl3     1 1      0.0000
    21 HN       2.9631  -1.7229  -0.1650   H         1 1      0.0000
    22 C        5.0778  -1.2077  -0.5004   C.3       1 1      0.0000
    23 H1A      5.1749  -2.2838  -0.6508   H         1 1      0.0000
    24 H1C      5.3298  -0.6864  -1.4295   H         1 1      0.0000
    25 H1B      5.7471  -0.8882   0.3021   H         1 1      0.0000
    26 H10A    -0.8549  -0.2772   1.5452   H         1 1      0.0000
    27 H10B    -1.1409  -1.7628   0.6587   H         1 1      0.0000
    28 H9B     -0.8783   1.0269  -0.6300   H         1 1      0.0000
    29 H5      -6.6702   0.6101   0.2336   H         1 1      0.0000
    30 H3      -2.6331   1.9075   0.9672   H         1 1      0.0000
    31 H12B     1.2548   1.0851  -0.1198   H         1 1      0.0000
    32 C15      3.8953   2.3458  -0.8698   C.3       1 1      0.0000
    33 H15A     4.2595   1.8209  -1.7584   H         1 1      0.0000
    34 H15B     2.8674   2.6748  -1.0503   H         1 1      0.0000
    35 H15C     4.5191   3.2316  -0.7181   H         1 1      0.0000
    36 O2       1.2531  -1.9017   1.3486   O.3       1 1      0.0000
    37 H21      0.7839  -2.7636   1.1972   H         1 1      0.0000
    38 H22      0.9802  -1.3630  -0.5919   H         1 1      0.0000
@<TRIPOS>BOND
     1     1     2   ar
     2     1     6   ar
     3     1    29    1
     4     2     3   ar
     5     2     7    1
     6     3     4   ar
     7     3    30    1
     8     4     5   ar
     9     4     8    1
    10     5     6   ar
    11     5     9    1
    12     6    10    1
    13     8    11    1
    14     8    12    1
    15     8    28    1
    16    11    13    1
    17    11    26    1
    18    11    27    1
    19    13    14    1
    20    14    15    1
    21    14    16    1
    22    14    31    1
    23    16    17    1
    24    16    20    2
    25    17    18    1
    26    17    19    1
    27    17    32    1
    28    20    21    1
    29    20    22    1
    30    22    23    1
    31    22    24    1
    32    22    25    1
    33    32    33    1
    34    32    34    1
    35    32    35    1
    36    13    36    1
    37    36    37    1
    38    13    38    1
@<TRIPOS>SUBSTRUCTURE
     1 1           1 GROUP             0 ****  ****    0  
@<TRIPOS>MOLECULE
Molecule Name_00001_00005
    38    38     1     0     0
SMALL
NO_CHARGES
****
Generated from the CSD

@<TRIPOS>ATOM
     1 C5      -5.0672   0.2439  -1.0634   C.ar      1 1      0.0000
     2 C4      -4.1255  -0.6399  -1.6026   C.ar      1 1      0.0000
     3 C3      -2.9574  -0.9376  -0.8926   C.ar      1 1      0.0000
     4 C8      -2.7182  -0.3558   0.3621   C.ar      1 1      0.0000
     5 C7      -3.6637   0.5356   0.8918   C.ar      1 1      0.0000
     6 C6      -4.8323   0.8351   0.1828   C.ar      1 1      0.0000
     7 H4      -4.2971  -1.0893  -2.5754   H         1 1      0.0000
     8 C9      -1.4841  -0.7363   1.1634   C.3       1 1      0.0000
     9 H7      -3.4806   1.0085   1.8540   H         1 1      0.0000
    10 H6      -5.5532   1.5320   0.5980   H         1 1      0.0000
    11 C10     -0.2882   0.1548   0.7480   C.3       1 1      0.0000
    12 H9A     -1.6710  -0.6158   2.2363   H         1 1      0.0000
    13 C11      0.9830  -0.1487   1.4898   C.3       1 1      0.0000
    14 C12      2.2241   0.6644   1.0848   C.3       1 1      0.0000
    15 H12A     3.0022   0.5362   1.8505   H         1 1      0.0000
    16 C13      2.8389   0.4075  -0.2745   C.2       1 1      0.0000
    17 C14      4.0433   1.2171  -0.6579   C.3       1 1      0.0000
    18 H14B     3.9138   2.2442  -0.2990   H         1 1      0.0000
    19 H14A     4.1628   1.2505  -1.7445   H         1 1      0.0000
    20 N        2.3329  -0.5059  -1.0497   N.pl3     1 1      0.0000
    21 HN       1.5206  -1.0253  -0.6327   H         1 1      0.0000
    22 C        2.7940  -0.8675  -2.4225   C.3       1 1      0.0000
    23 H1A      2.2254  -1.7436  -2.7374   H         1 1      0.0000
    24 H1C      2.5975  -0.0395  -3.1113   H         1 1      0.0000
    25 H1B      3.8605  -1.1055  -2.4171   H         1 1      0.0000
    26 H10A    -0.0982   0.0518  -0.3325   H         1 1      0.0000
    27 H10B    -0.5397   1.2164   0.9017   H         1 1      0.0000
    28 H9B     -1.2281  -1.7885   0.9975   H         1 1      0.0000
    29 H5      -5.9717   0.4783  -1.6149   H         1 1      0.0000
    30 H3      -2.2224  -1.6139  -1.3234   H         1 1      0.0000
    31 H12B     1.9549   1.7326   1.1295   H         1 1      0.0000
    32 C15      5.3366   0.6158  -0.0099   C.3       1 1      0.0000
    33 H15A     5.2727   0.6182   1.0827   H         1 1      0.0000
    34 H15B     5.5151  -0.4084  -0.3510   H         1 1      0.0000
    35 H15C     6.1929   1.2307  -0.3022   H         1 1      0.0000
    36 O2       0.7503   0.0564   2.8693   O.3       1 1      0.0000
    37 H21      0.1106  -0.6263   3.2021   H         1 1      0.0000
    38 H22      1.2119  -1.2032   1.3427   H         1 1      0.0000
@<TRIPOS>BOND
     1     1     2   ar
     2     1     6   ar
     3     1    29    1
     4     2     3   ar
     5     2     7    1
     6     3     4   ar
     7     3    30    1
     8     4     5   ar
     9     4     8    1
    10     5     6   ar
    11     5     9    1
    12     6    10    1
    13     8    11    1
    14     8    12    1
    15     8    28    1
    16    11    13    1
    17    11    26    1
    18    11    27    1
    19    13    14    1
    20    14    15    1
    21    14    16    1
    22    14    31    1
    23    16    17    1
    24    16    20    2
    25    17    18    1
    26    17    19    1
    27    17    32    1
    28    20    21    1
    29    20    22    1
    30    22    23    1
    31    22    24    1
    32    22    25    1
    33    32    33    1
    34    32    34    1
    35    32    35    1
    36    13    36    1
    37    36    37    1
    38    13    38    1
@<TRIPOS>SUBSTRUCTURE
     1 1           1 GROUP             0 ****  ****    0  
@<TRIPOS>MOLECULE
Molecule Name_00001_00006
    38    38     1     0     0
SMALL
NO_CHARGES
****
Generated from the CSD

@<TRIPOS>ATOM
     1 C5      -4.9095   0.6719  -1.0184   C.ar      1 1      0.0000
     2 C4      -4.0210  -0.1698  -1.6972   C.ar      1 1      0.0000
     3 C3      -2.8982  -0.6810  -1.0377   C.ar      1 1      0.0000
     4 C8      -2.6514  -0.3567   0.3054   C.ar      1 1      0.0000
     5 C7      -3.5429   0.4944   0.9762   C.ar      1 1      0.0000
     6 C6      -4.6662   1.0072   0.3180   C.ar      1 1      0.0000
     7 H4      -4.1984  -0.4207  -2.7381   H         1 1      0.0000
     8 C9      -1.4713  -0.9707   1.0404   C.3       1 1      0.0000
     9 H7      -3.3520   0.7694   2.0111   H         1 1      0.0000
    10 H6      -5.3449   1.6710   0.8437   H         1 1      0.0000
    11 C10     -0.2019  -0.1145   0.8115   C.3       1 1      0.0000
    12 H9A     -1.6784  -1.0326   2.1146   H         1 1      0.0000
    13 C11      1.0225  -0.6451   1.5025   C.3       1 1      0.0000
    14 C12      2.3308   0.1292   1.2702   C.3       1 1      0.0000
    15 H12A     3.0760  -0.1956   2.0101   H         1 1      0.0000
    16 C13      2.9623   0.0762  -0.1046   C.2       1 1      0.0000
    17 C14      4.2332   0.8461  -0.3169   C.3       1 1      0.0000
    18 H14B     4.7766   0.4142  -1.1647   H         1 1      0.0000
    19 H14A     4.8784   0.7873   0.5643   H         1 1      0.0000
    20 N        2.4119  -0.6394  -1.0407   N.pl3     1 1      0.0000
    21 HN       1.5524  -1.1612  -0.7369   H         1 1      0.0000
    22 C        2.8829  -0.7807  -2.4501   C.3       1 1      0.0000
    23 H1A      2.2602  -1.5384  -2.9277   H         1 1      0.0000
    24 H1C      2.7671   0.1711  -2.9783   H         1 1      0.0000
    25 H1B      3.9283  -1.0977  -2.4736   H         1 1      0.0000
    26 H10A     0.0097  -0.0342  -0.2670   H         1 1      0.0000
    27 H10B    -0.3787   0.9179   1.1533   H         1 1      0.0000
    28 H9B     -1.2891  -1.9920   0.6883   H         1 1      0.0000
    29 H5      -5.7787   1.0718  -1.5301   H         1 1      0.0000
    30 H3      -2.2034  -1.3229  -1.5749   H         1 1      0.0000
    31 H12B     2.1400   1.1892   1.5059   H         1 1      0.0000
    32 C15      3.9179   2.3478  -0.6325   C.3       1 1      0.0000
    33 H15A     3.3178   2.4461  -1.5424   H         1 1      0.0000
    34 H15B     3.3857   2.8266   0.1951   H         1 1      0.0000
    35 H15C     4.8618   2.8784  -0.7882   H         1 1      0.0000
    36 O2       0.7675  -0.6762   2.8930   O.3       1 1      0.0000
    37 H21      0.0702  -1.3562   3.0865   H         1 1      0.0000
    38 H22      1.1770  -1.6700   1.1682   H         1 1      0.0000
@<TRIPOS>BOND
     1     1     2   ar
     2     1     6   ar
     3     1    29    1
     4     2     3   ar
     5     2     7    1
     6     3     4   ar
     7     3    30    1
     8     4     5   ar
     9     4     8    1
    10     5     6   ar
    11     5     9    1
    12     6    10    1
    13     8    11    1
    14     8    12    1
    15     8    28    1
    16    11    13    1
    17    11    26    1
    18    11    27    1
    19    13    14    1
    20    14    15    1
    21    14    16    1
    22    14    31    1
    23    16    17    1
    24    16    20    2
    25    17    18    1
    26    17    19    1
    27    17    32    1
    28    20    21    1
    29    20    22    1
    30    22    23    1
    31    22    24    1
    32    22    25    1
    33    32    33    1
    34    32    34    1
    35    32    35    1
    36    13    36    1
    37    36    37    1
    38    13    38    1
@<TRIPOS>SUBSTRUCTURE
     1 1           1 GROUP             0 ****  ****    0  
@<TRIPOS>MOLECULE
Molecule Name_00001_00007
    38    38     1     0     0
SMALL
NO_CHARGES
****
Generated from the CSD

@<TRIPOS>ATOM
     1 C5      -5.6827   0.7409   0.1532   C.ar      1 1      0.0000
     2 C4      -4.9284   1.0699  -0.9787   C.ar      1 1      0.0000
     3 C3      -3.6297   0.5705  -1.1243   C.ar      1 1      0.0000
     4 C8      -3.0717  -0.2616  -0.1414   C.ar      1 1      0.0000
     5 C7      -3.8319  -0.5799   0.9943   C.ar      1 1      0.0000
     6 C6      -5.1307  -0.0809   1.1420   C.ar      1 1      0.0000
     7 H4      -5.3476   1.7187  -1.7410   H         1 1      0.0000
     8 C9      -1.6887  -0.8612  -0.3361   C.3       1 1      0.0000
     9 H7      -3.4035  -1.2075   1.7726   H         1 1      0.0000
    10 H6      -5.7071  -0.3268   2.0281   H         1 1      0.0000
    11 C10     -0.6085   0.1241   0.1731   C.3       1 1      0.0000
    12 H9A     -1.6011  -1.8084   0.2076   H         1 1      0.0000
    13 C11      0.7977  -0.3835   0.0216   C.3       1 1      0.0000
    14 C12      1.9219   0.5694   0.4615   C.3       1 1      0.0000
    15 H12A     1.8117   0.7830   1.5341   H         1 1      0.0000
    16 C13      3.3551   0.1600   0.1966   C.2       1 1      0.0000
    17 C14      3.8528   0.2436  -1.2170   C.3       1 1      0.0000
    18 H14B     3.0557  -0.0762  -1.8972   H         1 1      0.0000
    19 H14A     4.7125  -0.4153  -1.3689   H         1 1      0.0000
    20 N        4.1101  -0.2230   1.1838   N.pl3     1 1      0.0000
    21 HN       3.6430  -0.1877   2.1241   H         1 1      0.0000
    22 C        5.5273  -0.6835   1.0975   C.3       1 1      0.0000
    23 H1A      5.8891  -0.8184   2.1177   H         1 1      0.0000
    24 H1C      5.5765  -1.6385   0.5648   H         1 1      0.0000
    25 H1B      6.1410   0.0626   0.5869   H         1 1      0.0000
    26 H10A    -0.6945   1.0859  -0.3579   H         1 1      0.0000
    27 H10B    -0.7849   0.3586   1.2350   H         1 1      0.0000
    28 H9B     -1.5108  -1.0800  -1.3948   H         1 1      0.0000
    29 H5      -6.6887   1.1306   0.2689   H         1 1      0.0000
    30 H3      -3.0430   0.8416  -1.9993   H         1 1      0.0000
    31 H12B     1.7565   1.5376  -0.0393   H         1 1      0.0000
    32 C15      4.2561   1.7158  -1.5697   C.3       1 1      0.0000
    33 H15A     3.4024   2.3948  -1.4808   H         1 1      0.0000
    34 H15B     5.0621   2.0750  -0.9226   H         1 1      0.0000
    35 H15C     4.6071   1.7440  -2.6054   H         1 1      0.0000
    36 O2       0.9180  -1.5818   0.7625   O.3       1 1      0.0000
    37 H21      0.3645  -2.2895   0.3395   H         1 1      0.0000
    38 H22      0.9550  -0.6232  -1.0290   H         1 1      0.0000
@<TRIPOS>BOND
     1     1     2   ar
     2     1     6   ar
     3     1    29    1
     4     2     3   ar
     5     2     7    1
     6     3     4   ar
     7     3    30    1
     8     4     5   ar
     9     4     8    1
    10     5     6   ar
    11     5     9    1
    12     6    10    1
    13     8    11    1
    14     8    12    1
    15     8    28    1
    16    11    13    1
    17    11    26    1
    18    11    27    1
    19    13    14    1
    20    14    15    1
    21    14    16    1
    22    14    31    1
    23    16    17    1
    24    16    20    2
    25    17    18    1
    26    17    19    1
    27    17    32    1
    28    20    21    1
    29    20    22    1
    30    22    23    1
    31    22    24    1
    32    22    25    1
    33    32    33    1
    34    32    34    1
    35    32    35    1
    36    13    36    1
    37    36    37    1
    38    13    38    1
@<TRIPOS>SUBSTRUCTURE
     1 1           1 GROUP             0 ****  ****    0  
@<TRIPOS>MOLECULE
Molecule Name_00001_00008
    38    38     1     0     0
SMALL
NO_CHARGES
****
Generated from the CSD

@<TRIPOS>ATOM
     1 C5      -5.6842   0.0904   0.5227   C.ar      1 1      0.0000
     2 C4      -4.9208   1.2081   0.8783   C.ar      1 1      0.0000
     3 C3      -3.5843   1.3004   0.4751   C.ar      1 1      0.0000
     4 C8      -2.9973   0.2779  -0.2865   C.ar      1 1      0.0000
     5 C7      -3.7676  -0.8430  -0.6317   C.ar      1 1      0.0000
     6 C6      -5.1042  -0.9375  -0.2289   C.ar      1 1      0.0000
     7 H4      -5.3627   2.0007   1.4735   H         1 1      0.0000
     8 C9      -1.5678   0.4140  -0.7844   C.3       1 1      0.0000
     9 H7      -3.3186  -1.6513  -1.2046   H         1 1      0.0000
    10 H6      -5.6886  -1.8125  -0.4945   H         1 1      0.0000
    11 C10     -0.5814  -0.0992   0.2928   C.3       1 1      0.0000
    12 H9A     -1.4270  -0.1588  -1.7078   H         1 1      0.0000
    13 C11      0.8631  -0.0043  -0.1107   C.3       1 1      0.0000
    14 C12      1.8981  -0.4504   0.9359   C.3       1 1      0.0000
    15 H12A     1.7379  -1.5127   1.1684   H         1 1      0.0000
    16 C13      3.3657  -0.2404   0.6295   C.2       1 1      0.0000
    17 C14      3.9007   1.1595   0.7136   C.3       1 1      0.0000
    18 H14B     4.9837   1.1202   0.8752   H         1 1      0.0000
    19 H14A     3.4525   1.7002   1.5521   H         1 1      0.0000
    20 N        4.1152  -1.2602   0.3306   N.pl3     1 1      0.0000
    21 HN       3.6170  -2.1847   0.3550   H         1 1      0.0000
    22 C        5.5650  -1.2295  -0.0232   C.3       1 1      0.0000
    23 H1A      5.9031  -2.2635  -0.1037   H         1 1      0.0000
    24 H1C      5.7027  -0.7258  -0.9854   H         1 1      0.0000
    25 H1B      6.1371  -0.7165   0.7536   H         1 1      0.0000
    26 H10A    -0.7221   0.4612   1.2311   H         1 1      0.0000
    27 H10B    -0.8087  -1.1483   0.5408   H         1 1      0.0000
    28 H9B     -1.3402   1.4602  -1.0167   H         1 1      0.0000
    29 H5      -6.7198   0.0160   0.8380   H         1 1      0.0000
    30 H3      -2.9918   2.1647   0.7670   H         1 1      0.0000
    31 H12B     1.6767   0.0824   1.8753   H         1 1      0.0000
    32 C15      3.6174   1.9353  -0.6176   C.3       1 1      0.0000
    33 H15A     3.7886   1.3006  -1.4926   H         1 1      0.0000
    34 H15B     2.5905   2.3117  -0.6496   H         1 1      0.0000
    35 H15C     4.2993   2.7886  -0.6773   H         1 1      0.0000
    36 O2       1.0490  -0.7824  -1.2766   O.3       1 1      0.0000
    37 H21      0.6979  -0.2887  -2.0634   H         1 1      0.0000
    38 H22      1.0714   1.0338  -0.3651   H         1 1      0.0000
@<TRIPOS>BOND
     1     1     2   ar
     2     1     6   ar
     3     1    29    1
     4     2     3   ar
     5     2     7    1
     6     3     4   ar
     7     3    30    1
     8     4     5   ar
     9     4     8    1
    10     5     6   ar
    11     5     9    1
    12     6    10    1
    13     8    11    1
    14     8    12    1
    15     8    28    1
    16    11    13    1
    17    11    26    1
    18    11    27    1
    19    13    14    1
    20    14    15    1
    21    14    16    1
    22    14    31    1
    23    16    17    1
    24    16    20    2
    25    17    18    1
    26    17    19    1
    27    17    32    1
    28    20    21    1
    29    20    22    1
    30    22    23    1
    31    22    24    1
    32    22    25    1
    33    32    33    1
    34    32    34    1
    35    32    35    1
    36    13    36    1
    37    36    37    1
    38    13    38    1
@<TRIPOS>SUBSTRUCTURE
     1 1           1 GROUP             0 ****  ****    0  
@<TRIPOS>MOLECULE
Molecule Name_00001_00009
    38    38     1     0     0
SMALL
NO_CHARGES
****
Generated from the CSD

@<TRIPOS>ATOM
     1 C5      -5.7093   0.3890  -0.4641   C.ar      1 1      0.0000
     2 C4      -5.0226  -0.6843  -1.0430   C.ar      1 1      0.0000
     3 C3      -3.7152  -0.9779  -0.6409   C.ar      1 1      0.0000
     4 C8      -3.0809  -0.2030   0.3426   C.ar      1 1      0.0000
     5 C7      -3.7738   0.8762   0.9120   C.ar      1 1      0.0000
     6 C6      -5.0811   1.1719   0.5107   C.ar      1 1      0.0000
     7 H4      -5.5010  -1.2851  -1.8097   H         1 1      0.0000
     8 C9      -1.6882  -0.5680   0.8294   C.3       1 1      0.0000
     9 H7      -3.2861   1.4967   1.6607   H         1 1      0.0000
    10 H6      -5.6050   2.0138   0.9517   H         1 1      0.0000
    11 C10     -0.6211   0.0833  -0.0838   C.3       1 1      0.0000
    12 H9A     -1.5405  -0.2273   1.8602   H         1 1      0.0000
    13 C11      0.7937  -0.2222   0.3204   C.3       1 1      0.0000
    14 C12      1.9026   0.3529  -0.5769   C.3       1 1      0.0000
    15 H12A     1.8485   1.4505  -0.5547   H         1 1      0.0000
    16 C13      3.3327  -0.0645  -0.3079   C.2       1 1      0.0000
    17 C14      4.0086   0.5080   0.9038   C.3       1 1      0.0000
    18 H14B     4.8337  -0.1500   1.1985   H         1 1      0.0000
    19 H14A     3.3127   0.5759   1.7448   H         1 1      0.0000
    20 N        3.9192  -0.9093  -1.1038   N.pl3     1 1      0.0000
    21 HN       3.3105  -1.2624  -1.8838   H         1 1      0.0000
    22 C        5.3239  -1.4038  -1.0028   C.3       1 1      0.0000
    23 H1A      5.4511  -2.1814  -1.7572   H         1 1      0.0000
    24 H1C      6.0221  -0.5848  -1.2033   H         1 1      0.0000
    25 H1B      5.5114  -1.8218  -0.0107   H         1 1      0.0000
    26 H10A    -0.7672  -0.2422  -1.1265   H         1 1      0.0000
    27 H10B    -0.7546   1.1768  -0.0965   H         1 1      0.0000
    28 H9B     -1.5536  -1.6553   0.8273   H         1 1      0.0000
    29 H5      -6.7220   0.6199  -0.7779   H         1 1      0.0000
    30 H3      -3.1814  -1.8043  -1.1050   H         1 1      0.0000
    31 H12B     1.6680   0.0780  -1.6184   H         1 1      0.0000
    32 C15      4.5855   1.9300   0.5889   C.3       1 1      0.0000
    33 H15A     5.3282   1.8897  -0.2139   H         1 1      0.0000
    34 H15B     3.7931   2.6280   0.3022   H         1 1      0.0000
    35 H15C     5.0761   2.3156   1.4875   H         1 1      0.0000
    36 O2       0.9926   0.2606   1.6344   O.3       1 1      0.0000
    37 H21      0.4452  -0.2719   2.2691   H         1 1      0.0000
    38 H22      0.9088  -1.3049   0.3413   H         1 1      0.0000
@<TRIPOS>BOND
     1     1     2   ar
     2     1     6   ar
     3     1    29    1
     4     2     3   ar
     5     2     7    1
     6     3     4   ar
     7     3    30    1
     8     4     5   ar
     9     4     8    1
    10     5     6   ar
    11     5     9    1
    12     6    10    1
    13     8    11    1
    14     8    12    1
    15     8    28    1
    16    11    13    1
    17    11    26    1
    18    11    27    1
    19    13    14    1
    20    14    15    1
    21    14    16    1
    22    14    31    1
    23    16    17    1
    24    16    20    2
    25    17    18    1
    26    17    19    1
    27    17    32    1
    28    20    21    1
    29    20    22    1
    30    22    23    1
    31    22    24    1
    32    22    25    1
    33    32    33    1
    34    32    34    1
    35    32    35    1
    36    13    36    1
    37    36    37    1
    38    13    38    1
@<TRIPOS>SUBSTRUCTURE
     1 1           1 GROUP             0 ****  ****    0  
@<TRIPOS>MOLECULE
Molecule Name_00001_00010
    38    38     1     0     0
SMALL
NO_CHARGES
****
Generated from the CSD

@<TRIPOS>ATOM
     1 C5      -5.6737   0.5372  -0.3180   C.ar      1 1      0.0000
     2 C4      -5.4830  -0.4921   0.6108   C.ar      1 1      0.0000
     3 C3      -4.1890  -0.9208   0.9253   C.ar      1 1      0.0000
     4 C8      -3.0732  -0.3265   0.3155   C.ar      1 1      0.0000
     5 C7      -3.2738   0.6993  -0.6207   C.ar      1 1      0.0000
     6 C6      -4.5672   1.1291  -0.9371   C.ar      1 1      0.0000
     7 H4      -6.3392  -0.9636   1.0824   H         1 1      0.0000
     8 C9      -1.6667  -0.7439   0.7122   C.3       1 1      0.0000
     9 H7      -2.4183   1.1543  -1.1151   H         1 1      0.0000
    10 H6      -4.7115   1.9177  -1.6685   H         1 1      0.0000
    11 C10     -0.6261   0.0569  -0.1080   C.3       1 1      0.0000
    12 H9A     -1.5009  -0.5665   1.7806   H         1 1      0.0000
    13 C11      0.8000  -0.2885   0.2161   C.3       1 1      0.0000
    14 C12      1.8836   0.4351  -0.6011   C.3       1 1      0.0000
    15 H12A     1.8059   1.5166  -0.4212   H         1 1      0.0000
    16 C13      3.3260   0.0173  -0.4101   C.2       1 1      0.0000
    17 C14      4.3730   0.7511  -1.1963   C.3       1 1      0.0000
    18 H14B     3.9889   0.9549  -2.2021   H         1 1      0.0000
    19 H14A     5.2810   0.1496  -1.2960   H         1 1      0.0000
    20 N        3.6176  -0.9310   0.4307   N.pl3     1 1      0.0000
    21 HN       2.7894  -1.3226   0.9448   H         1 1      0.0000
    22 C        4.9742  -1.4824   0.7194   C.3       1 1      0.0000
    23 H1A      4.8722  -2.1814   1.5507   H         1 1      0.0000
    24 H1C      5.3542  -2.0145  -0.1587   H         1 1      0.0000
    25 H1B      5.6616  -0.6799   0.9978   H         1 1      0.0000
    26 H10A    -0.7907  -0.1036  -1.1858   H         1 1      0.0000
    27 H10B    -0.7715   1.1370   0.0533   H         1 1      0.0000
    28 H9B     -1.5207  -1.8155   0.5373   H         1 1      0.0000
    29 H5      -6.6770   0.8680  -0.5654   H         1 1      0.0000
    30 H3      -4.0478  -1.7312   1.6371   H         1 1      0.0000
    31 H12B     1.6406   0.3067  -1.6688   H         1 1      0.0000
    32 C15      4.7235   2.1126  -0.5050   C.3       1 1      0.0000
    33 H15A     3.8458   2.7630  -0.4386   H         1 1      0.0000
    34 H15B     5.1255   1.9579   0.5008   H         1 1      0.0000
    35 H15C     5.4820   2.6245  -1.1045   H         1 1      0.0000
    36 O2       1.0216  -0.0145   1.5855   O.3       1 1      0.0000
    37 H21      0.4936  -0.6473   2.1393   H         1 1      0.0000
    38 H22      0.9270  -1.3595   0.0649   H         1 1      0.0000
@<TRIPOS>BOND
     1     1     2   ar
     2     1     6   ar
     3     1    29    1
     4     2     3   ar
     5     2     7    1
     6     3     4   ar
     7     3    30    1
     8     4     5   ar
     9     4     8    1
    10     5     6   ar
    11     5     9    1
    12     6    10    1
    13     8    11    1
    14     8    12    1
    15     8    28    1
    16    11    13    1
    17    11    26    1
    18    11    27    1
    19    13    14    1
    20    14    15    1
    21    14    16    1
    22    14    31    1
    23    16    17    1
    24    16    20    2
    25    17    18    1
    26    17    19    1
    27    17    32    1
    28    20    21    1
    29    20    22    1
    30    22    23    1
    31    22    24    1
    32    22    25    1
    33    32    33    1
    34    32    34    1
    35    32    35    1
    36    13    36    1
    37    36    37    1
    38    13    38    1
@<TRIPOS>SUBSTRUCTURE
     1 1           1 GROUP             0 ****  ****    0  
@<TRIPOS>MOLECULE
Molecule Name_00001_00011
    38    38     1     0     0
SMALL
NO_CHARGES
****
Generated from the CSD

@<TRIPOS>ATOM
     1 C5      -5.6613   0.6877   0.0816   C.ar      1 1      0.0000
     2 C4      -5.4726  -0.6282  -0.3558   C.ar      1 1      0.0000
     3 C3      -4.1789  -1.1453  -0.4826   C.ar      1 1      0.0000
     4 C8      -3.0615  -0.3539  -0.1743   C.ar      1 1      0.0000
     5 C7      -3.2594   0.9670   0.2558   C.ar      1 1      0.0000
     6 C6      -4.5525   1.4863   0.3826   C.ar      1 1      0.0000
     7 H4      -6.3294  -1.2461  -0.6042   H         1 1      0.0000
     8 C9      -1.6611  -0.9405  -0.2433   C.3       1 1      0.0000
     9 H7      -2.4011   1.5969   0.4786   H         1 1      0.0000
    10 H6      -4.6940   2.5118   0.7084   H         1 1      0.0000
    11 C10     -0.6169   0.1369   0.1384   C.3       1 1      0.0000
    12 H9A     -1.5684  -1.7933   0.4384   H         1 1      0.0000
    13 C11      0.8036  -0.3518   0.0988   C.3       1 1      0.0000
    14 C12      1.8944   0.6844   0.4178   C.3       1 1      0.0000
    15 H12A     1.7500   1.0531   1.4431   H         1 1      0.0000
    16 C13      3.3429   0.2766   0.2521   C.2       1 1      0.0000
    17 C14      4.3950   1.2917   0.5921   C.3       1 1      0.0000
    18 H14B     5.3326   0.7732   0.8214   H         1 1      0.0000
    19 H14A     4.1067   1.8748   1.4714   H         1 1      0.0000
    20 N        3.6331  -0.9258  -0.1495   N.pl3     1 1      0.0000
    21 HN       2.7975  -1.5429  -0.3055   H         1 1      0.0000
    22 C        4.9972  -1.4815  -0.3912   C.3       1 1      0.0000
    23 H1A      4.8827  -2.5443  -0.6089   H         1 1      0.0000
    24 H1C      5.4558  -0.9816  -1.2504   H         1 1      0.0000
    25 H1B      5.6241  -1.3546   0.4948   H         1 1      0.0000
    26 H10A    -0.7088   1.0060  -0.5329   H         1 1      0.0000
    27 H10B    -0.8277   0.5229   1.1485   H         1 1      0.0000
    28 H9B     -1.4493  -1.3105  -1.2524   H         1 1      0.0000
    29 H5      -6.6641   1.0910   0.1768   H         1 1      0.0000
    30 H3      -4.0381  -2.1641  -0.8371   H         1 1      0.0000
    31 H12B     1.7222   1.5623  -0.2265   H         1 1      0.0000
    32 C15      4.6356   2.2576  -0.6175   C.3       1 1      0.0000
    33 H15A     4.9792   1.7111  -1.5013   H         1 1      0.0000
    34 H15B     3.7267   2.8096  -0.8748   H         1 1      0.0000
    35 H15C     5.4103   2.9788  -0.3408   H         1 1      0.0000
    36 O2       0.9290  -1.4224   1.0140   O.3       1 1      0.0000
    37 H21      0.4028  -2.1992   0.6888   H         1 1      0.0000
    38 H22      0.9950  -0.7418  -0.8998   H         1 1      0.0000
@<TRIPOS>BOND
     1     1     2   ar
     2     1     6   ar
     3     1    29    1
     4     2     3   ar
     5     2     7    1
     6     3     4   ar
     7     3    30    1
     8     4     5   ar
     9     4     8    1
    10     5     6   ar
    11     5     9    1
    12     6    10    1
    13     8    11    1
    14     8    12    1
    15     8    28    1
    16    11    13    1
    17    11    26    1
    18    11    27    1
    19    13    14    1
    20    14    15    1
    21    14    16    1
    22    14    31    1
    23    16    17    1
    24    16    20    2
    25    17    18    1
    26    17    19    1
    27    17    32    1
    28    20    21    1
    29    20    22    1
    30    22    23    1
    31    22    24    1
    32    22    25    1
    33    32    33    1
    34    32    34    1
    35    32    35    1
    36    13    36    1
    37    36    37    1
    38    13    38    1
@<TRIPOS>SUBSTRUCTURE
     1 1           1 GROUP             0 ****  ****    0  
@<TRIPOS>MOLECULE
Molecule Name_00001_00012
    38    38     1     0     0
SMALL
NO_CHARGES
****
Generated from the CSD

@<TRIPOS>ATOM
     1 C5      -5.6155   0.2581  -0.2903   C.ar      1 1      0.0000
     2 C4      -5.1028  -0.2763   0.8973   C.ar      1 1      0.0000
     3 C3      -3.7240  -0.2621   1.1338   C.ar      1 1      0.0000
     4 C8      -2.8440   0.2853   0.1872   C.ar      1 1      0.0000
     5 C7      -3.3658   0.8116  -1.0044   C.ar      1 1      0.0000
     6 C6      -4.7444   0.7977  -1.2431   C.ar      1 1      0.0000
     7 H4      -5.7738  -0.7088   1.6324   H         1 1      0.0000
     8 C9      -1.3544   0.3652   0.4780   C.3       1 1      0.0000
     9 H7      -2.6927   1.2205  -1.7547   H         1 1      0.0000
    10 H6      -5.1367   1.2001  -2.1715   H         1 1      0.0000
    11 C10     -0.6621  -0.9547   0.0589   C.3       1 1      0.0000
    12 H9A     -0.9015   1.2012  -0.0664   H         1 1      0.0000
    13 C11      0.8195  -0.9705   0.3093   C.3       1 1      0.0000
    14 C12      1.6604   0.0414  -0.4872   C.3       1 1      0.0000
    15 H12A     1.3395   1.0595  -0.2250   H         1 1      0.0000
    16 C13      3.1683  -0.0321  -0.3754   C.2       1 1      0.0000
    17 C14      3.9729   0.9790  -1.1391   C.3       1 1      0.0000
    18 H14B     3.5022   1.1496  -2.1137   H         1 1      0.0000
    19 H14A     4.9909   0.6187  -1.3130   H         1 1      0.0000
    20 N        3.7162  -0.9357   0.3826   N.pl3     1 1      0.0000
    21 HN       3.0300  -1.5455   0.8932   H         1 1      0.0000
    22 C        5.1772  -1.1655   0.5847   C.3       1 1      0.0000
    23 H1A      5.2838  -1.9205   1.3647   H         1 1      0.0000
    24 H1C      5.6276  -1.5342  -0.3425   H         1 1      0.0000
    25 H1B      5.6693  -0.2419   0.8991   H         1 1      0.0000
    26 H10A    -1.1179  -1.8053   0.5909   H         1 1      0.0000
    27 H10B    -0.8398  -1.1486  -1.0109   H         1 1      0.0000
    28 H9B     -1.1807   0.5438   1.5448   H         1 1      0.0000
    29 H5      -6.6843   0.2443  -0.4763   H         1 1      0.0000
    30 H3      -3.3303  -0.6921   2.0521   H         1 1      0.0000
    31 H12B     1.4018  -0.0723  -1.5529   H         1 1      0.0000
    32 C15      4.0270   2.3373  -0.3606   C.3       1 1      0.0000
    33 H15A     3.0254   2.7544  -0.2172   H         1 1      0.0000
    34 H15B     4.5036   2.2186   0.6172   H         1 1      0.0000
    35 H15C     4.6131   3.0527  -0.9451   H         1 1      0.0000
    36 O2       1.0380  -0.7402   1.6872   O.3       1 1      0.0000
    37 H21      0.5952  -1.4542   2.2165   H         1 1      0.0000
    38 H22      1.1873  -1.9683   0.0750   H         1 1      0.0000
@<TRIPOS>BOND
     1     1     2   ar
     2     1     6   ar
     3     1    29    1
     4     2     3   ar
     5     2     7    1
     6     3     4   ar
     7     3    30    1
     8     4     5   ar
     9     4     8    1
    10     5     6   ar
    11     5     9    1
    12     6    10    1
    13     8    11    1
    14     8    12    1
    15     8    28    1
    16    11    13    1
    17    11    26    1
    18    11    27    1
    19    13    14    1
    20    14    15    1
    21    14    16    1
    22    14    31    1
    23    16    17    1
    24    16    20    2
    25    17    18    1
    26    17    19    1
    27    17    32    1
    28    20    21    1
    29    20    22    1
    30    22    23    1
    31    22    24    1
    32    22    25    1
    33    32    33    1
    34    32    34    1
    35    32    35    1
    36    13    36    1
    37    36    37    1
    38    13    38    1
@<TRIPOS>SUBSTRUCTURE
     1 1           1 GROUP             0 ****  ****    0  
@<TRIPOS>MOLECULE
Molecule Name_00001_00013
    38    38     1     0     0
SMALL
NO_CHARGES
****
Generated from the CSD

@<TRIPOS>ATOM
     1 C5      -5.6103   0.5562  -0.1176   C.ar      1 1      0.0000
     2 C4      -5.1463  -0.7640  -0.1375   C.ar      1 1      0.0000
     3 C3      -3.7886  -1.0323   0.0672   C.ar      1 1      0.0000
     4 C8      -2.8814   0.0145   0.2935   C.ar      1 1      0.0000
     5 C7      -3.3537   1.3358   0.3037   C.ar      1 1      0.0000
     6 C6      -4.7111   1.6062   0.0985   C.ar      1 1      0.0000
     7 H4      -5.8381  -1.5802  -0.3191   H         1 1      0.0000
     8 C9      -1.4205  -0.2842   0.5875   C.3       1 1      0.0000
     9 H7      -2.6575   2.1571   0.4580   H         1 1      0.0000
    10 H6      -5.0645   2.6323   0.1004   H         1 1      0.0000
    11 C10     -0.6298  -0.4125  -0.7374   C.3       1 1      0.0000
    12 H9A     -0.9809   0.5133   1.1967   H         1 1      0.0000
    13 C11      0.8312  -0.7088  -0.5476   C.3       1 1      0.0000
    14 C12      1.6638   0.3726   0.1614   C.3       1 1      0.0000
    15 H12A     1.2701   0.5198   1.1770   H         1 1      0.0000
    16 C13      3.1631   0.1824   0.2488   C.2       1 1      0.0000
    17 C14      3.9575   1.2345   0.9663   C.3       1 1      0.0000
    18 H14B     4.9040   0.7996   1.3060   H         1 1      0.0000
    19 H14A     3.4185   1.6010   1.8446   H         1 1      0.0000
    20 N        3.7106  -0.8777  -0.2685   N.pl3     1 1      0.0000
    21 HN       3.0280  -1.5508  -0.6982   H         1 1      0.0000
    22 C        5.1660  -1.2079  -0.2964   C.3       1 1      0.0000
    23 H1A      5.2642  -2.2160  -0.7014   H         1 1      0.0000
    24 H1C      5.6953  -0.5022  -0.9447   H         1 1      0.0000
    25 H1B      5.5844  -1.1762   0.7126   H         1 1      0.0000
    26 H10A    -1.0706  -1.2038  -1.3649   H         1 1      0.0000
    27 H10B    -0.7268   0.5151  -1.3239   H         1 1      0.0000
    28 H9B     -1.3263  -1.2145   1.1584   H         1 1      0.0000
    29 H5      -6.6625   0.7657  -0.2800   H         1 1      0.0000
    30 H3      -3.4316  -2.0594   0.0361   H         1 1      0.0000
    31 H12B     1.4813   1.3293  -0.3553   H         1 1      0.0000
    32 C15      4.2690   2.4343   0.0082   C.3       1 1      0.0000
    33 H15A     4.8566   2.1111  -0.8566   H         1 1      0.0000
    34 H15B     3.3503   2.9107  -0.3470   H         1 1      0.0000
    35 H15C     4.8531   3.1784   0.5577   H         1 1      0.0000
    36 O2       0.9470  -1.9103   0.1890   O.3       1 1      0.0000
    37 H21      0.5115  -2.6489  -0.3119   H         1 1      0.0000
    38 H22      1.2686  -0.8762  -1.5307   H         1 1      0.0000
@<TRIPOS>BOND
     1     1     2   ar
     2     1     6   ar
     3     1    29    1
     4     2     3   ar
     5     2     7    1
     6     3     4   ar
     7     3    30    1
     8     4     5   ar
     9     4     8    1
    10     5     6   ar
    11     5     9    1
    12     6    10    1
    13     8    11    1
    14     8    12    1
    15     8    28    1
    16    11    13    1
    17    11    26    1
    18    11    27    1
    19    13    14    1
    20    14    15    1
    21    14    16    1
    22    14    31    1
    23    16    17    1
    24    16    20    2
    25    17    18    1
    26    17    19    1
    27    17    32    1
    28    20    21    1
    29    20    22    1
    30    22    23    1
    31    22    24    1
    32    22    25    1
    33    32    33    1
    34    32    34    1
    35    32    35    1
    36    13    36    1
    37    36    37    1
    38    13    38    1
@<TRIPOS>SUBSTRUCTURE
     1 1           1 GROUP             0 ****  ****    0  
@<TRIPOS>MOLECULE
Molecule Name_00001_00014
    38    38     1     0     0
SMALL
NO_CHARGES
****
Generated from the CSD

@<TRIPOS>ATOM
     1 C5      -5.6015   0.4233   0.3124   C.ar      1 1      0.0000
     2 C4      -4.7022   0.7572   1.3314   C.ar      1 1      0.0000
     3 C3      -3.3251   0.7325   1.0860   C.ar      1 1      0.0000
     4 C8      -2.8327   0.3742  -0.1785   C.ar      1 1      0.0000
     5 C7      -3.7410   0.0330  -1.1922   C.ar      1 1      0.0000
     6 C6      -5.1187   0.0564  -0.9486   C.ar      1 1      0.0000
     7 H4      -5.0721   1.0283   2.3150   H         1 1      0.0000
     8 C9      -1.3405   0.4183  -0.4634   C.3       1 1      0.0000
     9 H7      -3.3714  -0.2659  -2.1706   H         1 1      0.0000
    10 H6      -5.8122  -0.2171  -1.7373   H         1 1      0.0000
    11 C10     -0.6836  -0.9219  -0.0520   C.3       1 1      0.0000
    12 H9A     -1.1584   0.5997  -1.5285   H         1 1      0.0000
    13 C11      0.7981  -0.9736  -0.2971   C.3       1 1      0.0000
    14 C12      1.6717  -0.0691   0.5884   C.3       1 1      0.0000
    15 H12A     1.5476  -0.3681   1.6389   H         1 1      0.0000
    16 C13      3.1520   0.0199   0.2846   C.2       1 1      0.0000
    17 C14      3.5690   0.8144  -0.9187   C.3       1 1      0.0000
    18 H14B     2.8515   0.6416  -1.7286   H         1 1      0.0000
    19 H14A     4.5572   0.5039  -1.2696   H         1 1      0.0000
    20 N        4.0086  -0.5625   1.0709   N.pl3     1 1      0.0000
    21 HN       3.5775  -1.0432   1.8995   H         1 1      0.0000
    22 C        5.4917  -0.5984   0.9055   C.3       1 1      0.0000
    23 H1A      5.9080  -1.0695   1.7969   H         1 1      0.0000
    24 H1C      5.7535  -1.1924   0.0240   H         1 1      0.0000
    25 H1B      5.8897   0.4145   0.8067   H         1 1      0.0000
    26 H10A    -0.8708  -1.1219   1.0155   H         1 1      0.0000
    27 H10B    -1.1587  -1.7550  -0.5942   H         1 1      0.0000
    28 H9B     -0.8685   1.2387   0.0882   H         1 1      0.0000
    29 H5      -6.6696   0.4386   0.5027   H         1 1      0.0000
    30 H3      -2.6306   0.9789   1.8863   H         1 1      0.0000
    31 H12B     1.2607   0.9525   0.5335   H         1 1      0.0000
    32 C15      3.5922   2.3446  -0.5836   C.3       1 1      0.0000
    33 H15A     2.6029   2.7011  -0.2807   H         1 1      0.0000
    34 H15B     4.3076   2.5680   0.2136   H         1 1      0.0000
    35 H15C     3.8924   2.8947  -1.4803   H         1 1      0.0000
    36 O2       1.2287  -2.3095  -0.1261   O.3       1 1      0.0000
    37 H21      0.7554  -2.8953  -0.7733   H         1 1      0.0000
    38 H22      0.9748  -0.6960  -1.3352   H         1 1      0.0000
@<TRIPOS>BOND
     1     1     2   ar
     2     1     6   ar
     3     1    29    1
     4     2     3   ar
     5     2     7    1
     6     3     4   ar
     7     3    30    1
     8     4     5   ar
     9     4     8    1
    10     5     6   ar
    11     5     9    1
    12     6    10    1
    13     8    11    1
    14     8    12    1
    15     8    28    1
    16    11    13    1
    17    11    26    1
    18    11    27    1
    19    13    14    1
    20    14    15    1
    21    14    16    1
    22    14    31    1
    23    16    17    1
    24    16    20    2
    25    17    18    1
    26    17    19    1
    27    17    32    1
    28    20    21    1
    29    20    22    1
    30    22    23    1
    31    22    24    1
    32    22    25    1
    33    32    33    1
    34    32    34    1
    35    32    35    1
    36    13    36    1
    37    36    37    1
    38    13    38    1
@<TRIPOS>SUBSTRUCTURE
     1 1           1 GROUP             0 ****  ****    0  
@<TRIPOS>MOLECULE
Molecule Name_00001_00015
    38    38     1     0     0
SMALL
NO_CHARGES
****
Generated from the CSD

@<TRIPOS>ATOM
     1 C5      -5.6264   0.2067   0.2435   C.ar      1 1      0.0000
     2 C4      -4.7941   0.2235   1.3685   C.ar      1 1      0.0000
     3 C3      -3.4084   0.3366   1.2129   C.ar      1 1      0.0000
     4 C8      -2.8404   0.4338  -0.0669   C.ar      1 1      0.0000
     5 C7      -3.6815   0.4081  -1.1898   C.ar      1 1      0.0000
     6 C6      -5.0676   0.2943  -1.0363   C.ar      1 1      0.0000
     7 H4      -5.2224   0.1412   2.3623   H         1 1      0.0000
     8 C9      -1.3421   0.6295  -0.2304   C.3       1 1      0.0000
     9 H7      -3.2522   0.4625  -2.1877   H         1 1      0.0000
    10 H6      -5.7084   0.2673  -1.9117   H         1 1      0.0000
    11 C10     -0.6272  -0.7437  -0.2389   C.3       1 1      0.0000
    12 H9A     -1.1240   1.1580  -1.1651   H         1 1      0.0000
    13 C11      0.8644  -0.6518  -0.3968   C.3       1 1      0.0000
    14 C12      1.6437  -0.0539   0.7867   C.3       1 1      0.0000
    15 H12A     1.4908  -0.6861   1.6727   H         1 1      0.0000
    16 C13      3.1284   0.1899   0.6192   C.2       1 1      0.0000
    17 C14      3.5512   1.3519  -0.2316   C.3       1 1      0.0000
    18 H14B     4.5653   1.6542   0.0528   H         1 1      0.0000
    19 H14A     2.8879   2.2086  -0.0819   H         1 1      0.0000
    20 N        3.9818  -0.5833   1.2234   N.pl3     1 1      0.0000
    21 HN       3.5431  -1.3266   1.8222   H         1 1      0.0000
    22 C        5.4703  -0.5027   1.1460   C.3       1 1      0.0000
    23 H1A      5.8735  -1.2234   1.8588   H         1 1      0.0000
    24 H1C      5.8050  -0.7630   0.1368   H         1 1      0.0000
    25 H1B      5.8126   0.5016   1.4072   H         1 1      0.0000
    26 H10A    -0.8495  -1.2907   0.6916   H         1 1      0.0000
    27 H10B    -1.0285  -1.3709  -1.0509   H         1 1      0.0000
    28 H9B     -0.9436   1.2416   0.5861   H         1 1      0.0000
    29 H5      -6.7010   0.1153   0.3629   H         1 1      0.0000
    30 H3      -2.7656   0.3343   2.0905   H         1 1      0.0000
    31 H12B     1.1768   0.9115   1.0427   H         1 1      0.0000
    32 C15      3.5506   0.9510  -1.7461   C.3       1 1      0.0000
    33 H15A     3.8493  -0.0930  -1.8818   H         1 1      0.0000
    34 H15B     2.5649   1.0981  -2.1977   H         1 1      0.0000
    35 H15C     4.2701   1.5825  -2.2756   H         1 1      0.0000
    36 O2       1.3641  -1.9512  -0.6445   O.3       1 1      0.0000
    37 H21      0.9548  -2.3105  -1.4748   H         1 1      0.0000
    38 H22      1.0705  -0.0416  -1.2749   H         1 1      0.0000
@<TRIPOS>BOND
     1     1     2   ar
     2     1     6   ar
     3     1    29    1
     4     2     3   ar
     5     2     7    1
     6     3     4   ar
     7     3    30    1
     8     4     5   ar
     9     4     8    1
    10     5     6   ar
    11     5     9    1
    12     6    10    1
    13     8    11    1
    14     8    12    1
    15     8    28    1
    16    11    13    1
    17    11    26    1
    18    11    27    1
    19    13    14    1
    20    14    15    1
    21    14    16    1
    22    14    31    1
    23    16    17    1
    24    16    20    2
    25    17    18    1
    26    17    19    1
    27    17    32    1
    28    20    21    1
    29    20    22    1
    30    22    23    1
    31    22    24    1
    32    22    25    1
    33    32    33    1
    34    32    34    1
    35    32    35    1
    36    13    36    1
    37    36    37    1
    38    13    38    1
@<TRIPOS>SUBSTRUCTURE
     1 1           1 GROUP             0 ****  ****    0  
@<TRIPOS>MOLECULE
Molecule Name_00001_00016
    38    38     1     0     0
SMALL
NO_CHARGES
****
Generated from the CSD

@<TRIPOS>ATOM
     1 C5      -5.6390   0.1551  -0.3388   C.ar      1 1      0.0000
     2 C4      -4.7263   0.4028  -1.3704   C.ar      1 1      0.0000
     3 C3      -3.3612   0.1739  -1.1676   C.ar      1 1      0.0000
     4 C8      -2.8942  -0.3041   0.0668   C.ar      1 1      0.0000
     5 C7      -3.8152  -0.5420   1.0983   C.ar      1 1      0.0000
     6 C6      -5.1809  -0.3130   0.8976   C.ar      1 1      0.0000
     7 H4      -5.0759   0.7797  -2.3261   H         1 1      0.0000
     8 C9      -1.4204  -0.6206   0.2610   C.3       1 1      0.0000
     9 H7      -3.4638  -0.8933   2.0659   H         1 1      0.0000
    10 H6      -5.8838  -0.4926   1.7047   H         1 1      0.0000
    11 C10     -0.6584   0.6548   0.6962   C.3       1 1      0.0000
    12 H9A     -1.2921  -1.3977   1.0227   H         1 1      0.0000
    13 C11      0.8130   0.4398   0.9136   C.3       1 1      0.0000
    14 C12      1.6560   0.1487  -0.3394   C.3       1 1      0.0000
    15 H12A     1.6085   1.0161  -1.0129   H         1 1      0.0000
    16 C13      3.1077  -0.2385  -0.1543   C.2       1 1      0.0000
    17 C14      4.0698   0.8407   0.2491   C.3       1 1      0.0000
    18 H14B     4.9433   0.3823   0.7261   H         1 1      0.0000
    19 H14A     3.6113   1.5251   0.9686   H         1 1      0.0000
    20 N        3.4726  -1.4753  -0.3227   N.pl3     1 1      0.0000
    21 HN       2.6854  -2.1299  -0.5580   H         1 1      0.0000
    22 C        4.8570  -2.0213  -0.2083   C.3       1 1      0.0000
    23 H1A      4.7883  -3.1063  -0.2983   H         1 1      0.0000
    24 H1C      5.4803  -1.6279  -1.0177   H         1 1      0.0000
    25 H1B      5.2916  -1.7610   0.7599   H         1 1      0.0000
    26 H10A    -0.7904   1.4487  -0.0566   H         1 1      0.0000
    27 H10B    -1.0959   1.0553   1.6246   H         1 1      0.0000
    28 H9B     -0.9848  -1.0052  -0.6677   H         1 1      0.0000
    29 H5      -6.6976   0.3358  -0.4938   H         1 1      0.0000
    30 H3      -2.6550   0.3821  -1.9684   H         1 1      0.0000
    31 H12B     1.1638  -0.6679  -0.8929   H         1 1      0.0000
    32 C15      4.5462   1.6474  -1.0065   C.3       1 1      0.0000
    33 H15A     5.0598   1.0003  -1.7243   H         1 1      0.0000
    34 H15B     3.7063   2.1362  -1.5094   H         1 1      0.0000
    35 H15C     5.2494   2.4194  -0.6804   H         1 1      0.0000
    36 O2       1.3400   1.5904   1.5442   O.3       1 1      0.0000
    37 H21      0.8833   1.7291   2.4150   H         1 1      0.0000
    38 H22      0.9304  -0.3994   1.5976   H         1 1      0.0000
@<TRIPOS>BOND
     1     1     2   ar
     2     1     6   ar
     3     1    29    1
     4     2     3   ar
     5     2     7    1
     6     3     4   ar
     7     3    30    1
     8     4     5   ar
     9     4     8    1
    10     5     6   ar
    11     5     9    1
    12     6    10    1
    13     8    11    1
    14     8    12    1
    15     8    28    1
    16    11    13    1
    17    11    26    1
    18    11    27    1
    19    13    14    1
    20    14    15    1
    21    14    16    1
    22    14    31    1
    23    16    17    1
    24    16    20    2
    25    17    18    1
    26    17    19    1
    27    17    32    1
    28    20    21    1
    29    20    22    1
    30    22    23    1
    31    22    24    1
    32    22    25    1
    33    32    33    1
    34    32    34    1
    35    32    35    1
    36    13    36    1
    37    36    37    1
    38    13    38    1
@<TRIPOS>SUBSTRUCTURE
     1 1           1 GROUP             0 ****  ****    0  
@<TRIPOS>MOLECULE
Molecule Name_00001_00017
    38    38     1     0     0
SMALL
NO_CHARGES
****
Generated from the CSD

@<TRIPOS>ATOM
     1 C5      -4.8680   1.1976   0.6687   C.ar      1 1      0.0000
     2 C4      -4.5236   1.0428  -0.6789   C.ar      1 1      0.0000
     3 C3      -3.4283   0.2487  -1.0351   C.ar      1 1      0.0000
     4 C8      -2.6663  -0.3980  -0.0496   C.ar      1 1      0.0000
     5 C7      -3.0135  -0.2308   1.2996   C.ar      1 1      0.0000
     6 C6      -4.1083   0.5635   1.6579   C.ar      1 1      0.0000
     7 H4      -5.1015   1.5446  -1.4483   H         1 1      0.0000
     8 C9      -1.5219  -1.3176  -0.4428   C.3       1 1      0.0000
     9 H7      -2.4189  -0.7104   2.0739   H         1 1      0.0000
    10 H6      -4.3633   0.6926   2.7048   H         1 1      0.0000
    11 C10     -0.2215  -0.4970  -0.6222   C.3       1 1      0.0000
    12 H9A     -1.3646  -2.0839   0.3244   H         1 1      0.0000
    13 C11      0.9707  -1.3241  -1.0131   C.3       1 1      0.0000
    14 C12      2.2876  -0.5635  -1.2423   C.3       1 1      0.0000
    15 H12A     2.1418   0.1715  -2.0465   H         1 1      0.0000
    16 C13      2.9285   0.1348  -0.0620   C.2       1 1      0.0000
    17 C14      4.1132   1.0155  -0.3337   C.3       1 1      0.0000
    18 H14B     4.7396   0.5471  -1.1010   H         1 1      0.0000
    19 H14A     4.7202   1.1441   0.5670   H         1 1      0.0000
    20 N        2.4321  -0.0240   1.1295   N.pl3     1 1      0.0000
    21 HN       1.5752  -0.6306   1.1634   H         1 1      0.0000
    22 C        2.9522   0.5639   2.3991   C.3       1 1      0.0000
    23 H1A      2.2375   0.3226   3.1871   H         1 1      0.0000
    24 H1C      3.9244   0.1234   2.6424   H         1 1      0.0000
    25 H1B      3.0444   1.6489   2.3081   H         1 1      0.0000
    26 H10A    -0.3713   0.2859  -1.3832   H         1 1      0.0000
    27 H10B     0.0145   0.0412   0.3097   H         1 1      0.0000
    28 H9B     -1.7535  -1.8405  -1.3773   H         1 1      0.0000
    29 H5      -5.7151   1.8162   0.9463   H         1 1      0.0000
    30 H3      -3.1567   0.1440  -2.0832   H         1 1      0.0000
    31 H12B     3.0239  -1.2800  -1.6425   H         1 1      0.0000
    32 C15      3.6459   2.4182  -0.8515   C.3       1 1      0.0000
    33 H15A     3.0805   2.3302  -1.7844   H         1 1      0.0000
    34 H15B     3.0263   2.9315  -0.1100   H         1 1      0.0000
    35 H15C     4.5303   3.0320  -1.0460   H         1 1      0.0000
    36 O2       1.1880  -2.2914  -0.0048   O.3       1 1      0.0000
    37 H21      0.4437  -2.9488  -0.0109   H         1 1      0.0000
    38 H22      0.7245  -1.8508  -1.9339   H         1 1      0.0000
@<TRIPOS>BOND
     1     1     2   ar
     2     1     6   ar
     3     1    29    1
     4     2     3   ar
     5     2     7    1
     6     3     4   ar
     7     3    30    1
     8     4     5   ar
     9     4     8    1
    10     5     6   ar
    11     5     9    1
    12     6    10    1
    13     8    11    1
    14     8    12    1
    15     8    28    1
    16    11    13    1
    17    11    26    1
    18    11    27    1
    19    13    14    1
    20    14    15    1
    21    14    16    1
    22    14    31    1
    23    16    17    1
    24    16    20    2
    25    17    18    1
    26    17    19    1
    27    17    32    1
    28    20    21    1
    29    20    22    1
    30    22    23    1
    31    22    24    1
    32    22    25    1
    33    32    33    1
    34    32    34    1
    35    32    35    1
    36    13    36    1
    37    36    37    1
    38    13    38    1
@<TRIPOS>SUBSTRUCTURE
     1 1           1 GROUP             0 ****  ****    0  
@<TRIPOS>MOLECULE
Molecule Name_00001_00018
    38    38     1     0     0
SMALL
NO_CHARGES
****
Generated from the CSD

@<TRIPOS>ATOM
     1 C5      -5.0631   1.0327   0.5520   C.ar      1 1      0.0000
     2 C4      -4.7127   0.7576  -0.7747   C.ar      1 1      0.0000
     3 C3      -3.5610   0.0145  -1.0553   C.ar      1 1      0.0000
     4 C8      -2.7482  -0.4606  -0.0144   C.ar      1 1      0.0000
     5 C7      -3.1024  -0.1733   1.3126   C.ar      1 1      0.0000
     6 C6      -4.2534   0.5703   1.5953   C.ar      1 1      0.0000
     7 H4      -5.3301   1.1268  -1.5873   H         1 1      0.0000
     8 C9      -1.5382  -1.3286  -0.3186   C.3       1 1      0.0000
     9 H7      -2.4699  -0.5187   2.1274   H         1 1      0.0000
    10 H6      -4.5138   0.7937   2.6248   H         1 1      0.0000
    11 C10     -0.3051  -0.4364  -0.6020   C.3       1 1      0.0000
    12 H9A     -1.3198  -1.9919   0.5256   H         1 1      0.0000
    13 C11      0.9455  -1.2087  -0.9146   C.3       1 1      0.0000
    14 C12      2.1995  -0.3803  -1.2412   C.3       1 1      0.0000
    15 H12A     1.9950   0.2489  -2.1189   H         1 1      0.0000
    16 C13      2.7893   0.4897  -0.1517   C.2       1 1      0.0000
    17 C14      3.9021   1.4225  -0.5320   C.3       1 1      0.0000
    18 H14B     3.9485   2.2406   0.1954   H         1 1      0.0000
    19 H14A     3.7278   1.8575  -1.5203   H         1 1      0.0000
    20 N        2.3108   0.4254   1.0558   N.pl3     1 1      0.0000
    21 HN       1.5030  -0.2370   1.1659   H         1 1      0.0000
    22 C        2.7889   1.1867   2.2474   C.3       1 1      0.0000
    23 H1A      2.0976   0.9798   3.0655   H         1 1      0.0000
    24 H1C      3.7928   0.8504   2.5256   H         1 1      0.0000
    25 H1B      2.7974   2.2590   2.0375   H         1 1      0.0000
    26 H10A    -0.5171   0.2447  -1.4420   H         1 1      0.0000
    27 H10B    -0.1077   0.2170   0.2628   H         1 1      0.0000
    28 H9B     -1.7324  -1.9668  -1.1877   H         1 1      0.0000
    29 H5      -5.9540   1.6121   0.7705   H         1 1      0.0000
    30 H3      -3.2860  -0.1836  -2.0890   H         1 1      0.0000
    31 H12B     2.9870  -1.0785  -1.5696   H         1 1      0.0000
    32 C15      5.2747   0.6675  -0.5299   C.3       1 1      0.0000
    33 H15A     5.5066   0.2655   0.4612   H         1 1      0.0000
    34 H15B     5.2805  -0.1528  -1.2540   H         1 1      0.0000
    35 H15C     6.0635   1.3744  -0.8036   H         1 1      0.0000
    36 O2       1.2399  -2.0404   0.1904   O.3       1 1      0.0000
    37 H21      0.5482  -2.7489   0.2650   H         1 1      0.0000
    38 H22      0.7370  -1.8504  -1.7694   H         1 1      0.0000
@<TRIPOS>BOND
     1     1     2   ar
     2     1     6   ar
     3     1    29    1
     4     2     3   ar
     5     2     7    1
     6     3     4   ar
     7     3    30    1
     8     4     5   ar
     9     4     8    1
    10     5     6   ar
    11     5     9    1
    12     6    10    1
    13     8    11    1
    14     8    12    1
    15     8    28    1
    16    11    13    1
    17    11    26    1
    18    11    27    1
    19    13    14    1
    20    14    15    1
    21    14    16    1
    22    14    31    1
    23    16    17    1
    24    16    20    2
    25    17    18    1
    26    17    19    1
    27    17    32    1
    28    20    21    1
    29    20    22    1
    30    22    23    1
    31    22    24    1
    32    22    25    1
    33    32    33    1
    34    32    34    1
    35    32    35    1
    36    13    36    1
    37    36    37    1
    38    13    38    1
@<TRIPOS>SUBSTRUCTURE
     1 1           1 GROUP             0 ****  ****    0  
@<TRIPOS>MOLECULE
Molecule Name_00001_00019
    38    38     1     0     0
SMALL
NO_CHARGES
****
Generated from the CSD

@<TRIPOS>ATOM
     1 C5      -5.6386   0.4196   0.0121   C.ar      1 1      0.0000
     2 C4      -5.1449   0.0552  -1.2457   C.ar      1 1      0.0000
     3 C3      -3.7790  -0.1942  -1.4166   C.ar      1 1      0.0000
     4 C8      -2.8930  -0.0820  -0.3338   C.ar      1 1      0.0000
     5 C7      -3.3951   0.2918   0.9221   C.ar      1 1      0.0000
     6 C6      -4.7608   0.5423   1.0949   C.ar      1 1      0.0000
     7 H4      -5.8202  -0.0269  -2.0912   H         1 1      0.0000
     8 C9      -1.4220  -0.4236  -0.5052   C.3       1 1      0.0000
     9 H7      -2.7159   0.4017   1.7646   H         1 1      0.0000
    10 H6      -5.1375   0.8385   2.0686   H         1 1      0.0000
    11 C10     -0.6705  -0.2122   0.8317   C.3       1 1      0.0000
    12 H9A     -1.3048  -1.4645  -0.8267   H         1 1      0.0000
    13 C11      0.7974  -0.5261   0.7606   C.3       1 1      0.0000
    14 C12      1.6624   0.4270  -0.0813   C.3       1 1      0.0000
    15 H12A     1.6089   1.4361   0.3512   H         1 1      0.0000
    16 C13      3.1180   0.0727  -0.2988   C.2       1 1      0.0000
    17 C14      3.9541   1.0267  -1.1012   C.3       1 1      0.0000
    18 H14B     3.3546   1.4188  -1.9303   H         1 1      0.0000
    19 H14A     4.8274   0.5217  -1.5240   H         1 1      0.0000
    20 N        3.6029  -1.0147   0.2243   N.pl3     1 1      0.0000
    21 HN       2.9148  -1.5619   0.7992   H         1 1      0.0000
    22 C        4.9985  -1.5261   0.0874   C.3       1 1      0.0000
    23 H1A      5.0935  -2.3942   0.7411   H         1 1      0.0000
    24 H1C      5.1842  -1.8285  -0.9482   H         1 1      0.0000
    25 H1B      5.7174  -0.7603   0.3889   H         1 1      0.0000
    26 H10A    -0.7916   0.8288   1.1722   H         1 1      0.0000
    27 H10B    -1.1248  -0.8334   1.6201   H         1 1      0.0000
    28 H9B     -0.9696   0.2054  -1.2798   H         1 1      0.0000
    29 H5      -6.6972   0.6168   0.1450   H         1 1      0.0000
    30 H3      -3.3990  -0.4627  -2.3999   H         1 1      0.0000
    31 H12B     1.1922   0.5184  -1.0743   H         1 1      0.0000
    32 C15      4.4263   2.2250  -0.2095   C.3       1 1      0.0000
    33 H15A     3.5746   2.7868   0.1863   H         1 1      0.0000
    34 H15B     5.0425   1.8818   0.6270   H         1 1      0.0000
    35 H15C     5.0258   2.9034  -0.8236   H         1 1      0.0000
    36 O2       1.3108  -0.5427   2.0780   O.3       1 1      0.0000
    37 H21      0.8390  -1.2370   2.6084   H         1 1      0.0000
    38 H22      0.9052  -1.5279   0.3474   H         1 1      0.0000
@<TRIPOS>BOND
     1     1     2   ar
     2     1     6   ar
     3     1    29    1
     4     2     3   ar
     5     2     7    1
     6     3     4   ar
     7     3    30    1
     8     4     5   ar
     9     4     8    1
    10     5     6   ar
    11     5     9    1
    12     6    10    1
    13     8    11    1
    14     8    12    1
    15     8    28    1
    16    11    13    1
    17    11    26    1
    18    11    27    1
    19    13    14    1
    20    14    15    1
    21    14    16    1
    22    14    31    1
    23    16    17    1
    24    16    20    2
    25    17    18    1
    26    17    19    1
    27    17    32    1
    28    20    21    1
    29    20    22    1
    30    22    23    1
    31    22    24    1
    32    22    25    1
    33    32    33    1
    34    32    34    1
    35    32    35    1
    36    13    36    1
    37    36    37    1
    38    13    38    1
@<TRIPOS>SUBSTRUCTURE
     1 1           1 GROUP             0 ****  ****    0  
@<TRIPOS>MOLECULE
Molecule Name_00001_00020
    38    38     1     0     0
SMALL
NO_CHARGES
****
Generated from the CSD

@<TRIPOS>ATOM
     1 C5      -5.6068   0.3967  -0.0363   C.ar      1 1      0.0000
     2 C4      -5.0317   0.4380  -1.3114   C.ar      1 1      0.0000
     3 C3      -3.6514   0.2671  -1.4631   C.ar      1 1      0.0000
     4 C8      -2.8324   0.0537  -0.3434   C.ar      1 1      0.0000
     5 C7      -3.4161   0.0219   0.9322   C.ar      1 1      0.0000
     6 C6      -4.7963   0.1933   1.0860   C.ar      1 1      0.0000
     7 H4      -5.6549   0.6100  -2.1831   H         1 1      0.0000
     8 C9      -1.3446  -0.2037  -0.5170   C.3       1 1      0.0000
     9 H7      -2.7896  -0.1227   1.8095   H         1 1      0.0000
    10 H6      -5.2364   0.1749   2.0778   H         1 1      0.0000
    11 C10     -0.6771  -0.4015   0.8659   C.3       1 1      0.0000
    12 H9A     -1.1787  -1.0960  -1.1309   H         1 1      0.0000
    13 C11      0.8010  -0.6631   0.7960   C.3       1 1      0.0000
    14 C12      1.6842   0.5103   0.3393   C.3       1 1      0.0000
    15 H12A     1.5765   1.3391   1.0532   H         1 1      0.0000
    16 C13      3.1597   0.2546   0.1172   C.2       1 1      0.0000
    17 C14      4.0117   1.4165  -0.3035   C.3       1 1      0.0000
    18 H14B     5.0545   1.2116  -0.0366   H         1 1      0.0000
    19 H14A     3.7048   2.3328   0.2086   H         1 1      0.0000
    20 N        3.6457  -0.9352   0.3155   N.pl3     1 1      0.0000
    21 HN       2.9423  -1.6388   0.6526   H         1 1      0.0000
    22 C        5.0614  -1.3656   0.1186   C.3       1 1      0.0000
    23 H1A      5.1443  -2.3905   0.4828   H         1 1      0.0000
    24 H1C      5.3146  -1.3363  -0.9460   H         1 1      0.0000
    25 H1B      5.7389  -0.7204   0.6830   H         1 1      0.0000
    26 H10A    -0.8480   0.4851   1.4977   H         1 1      0.0000
    27 H10B    -1.1572  -1.2381   1.3983   H         1 1      0.0000
    28 H9B     -0.8675   0.6361  -1.0340   H         1 1      0.0000
    29 H5      -6.6767   0.5328   0.0828   H         1 1      0.0000
    30 H3      -3.2083   0.3148  -2.4554   H         1 1      0.0000
    31 H12B     1.2690   0.8947  -0.6069   H         1 1      0.0000
    32 C15      3.9206   1.6302  -1.8528   C.3       1 1      0.0000
    33 H15A     4.2733   0.7491  -2.3978   H         1 1      0.0000
    34 H15B     2.8959   1.8522  -2.1657   H         1 1      0.0000
    35 H15C     4.5561   2.4773  -2.1273   H         1 1      0.0000
    36 O2       1.2387  -1.0745   2.0760   O.3       1 1      0.0000
    37 H21      0.7580  -1.9024   2.3399   H         1 1      0.0000
    38 H22      0.9616  -1.4903   0.1061   H         1 1      0.0000
@<TRIPOS>BOND
     1     1     2   ar
     2     1     6   ar
     3     1    29    1
     4     2     3   ar
     5     2     7    1
     6     3     4   ar
     7     3    30    1
     8     4     5   ar
     9     4     8    1
    10     5     6   ar
    11     5     9    1
    12     6    10    1
    13     8    11    1
    14     8    12    1
    15     8    28    1
    16    11    13    1
    17    11    26    1
    18    11    27    1
    19    13    14    1
    20    14    15    1
    21    14    16    1
    22    14    31    1
    23    16    17    1
    24    16    20    2
    25    17    18    1
    26    17    19    1
    27    17    32    1
    28    20    21    1
    29    20    22    1
    30    22    23    1
    31    22    24    1
    32    22    25    1
    33    32    33    1
    34    32    34    1
    35    32    35    1
    36    13    36    1
    37    36    37    1
    38    13    38    1
@<TRIPOS>SUBSTRUCTURE
     1 1           1 GROUP             0 ****  ****    0  
@<TRIPOS>MOLECULE
Molecule Name_00001_00021
    38    38     1     0     0
SMALL
NO_CHARGES
****
Generated from the CSD

@<TRIPOS>ATOM
     1 C5      -4.3407  -0.1516  -1.4978   C.ar      1 1      0.0000
     2 C4      -3.2932  -1.0670  -1.3448   C.ar      1 1      0.0000
     3 C3      -2.4844  -1.0217  -0.2042   C.ar      1 1      0.0000
     4 C8      -2.7134  -0.0621   0.7942   C.ar      1 1      0.0000
     5 C7      -3.7606   0.8571   0.6291   C.ar      1 1      0.0000
     6 C6      -4.5702   0.8138  -0.5113   C.ar      1 1      0.0000
     7 H4      -3.1028  -1.8081  -2.1144   H         1 1      0.0000
     8 C9      -1.8799  -0.0610   2.0652   C.3       1 1      0.0000
     9 H7      -3.9358   1.6183   1.3861   H         1 1      0.0000
    10 H6      -5.3724   1.5345  -0.6329   H         1 1      0.0000
    11 C10     -0.5935   0.7740   1.8534   C.3       1 1      0.0000
    12 H9A     -2.4526   0.3599   2.8991   H         1 1      0.0000
    13 C11      0.3911   0.1450   0.9084   C.3       1 1      0.0000
    14 C12      1.6716   0.9463   0.6187   C.3       1 1      0.0000
    15 H12A     2.2277   1.0848   1.5567   H         1 1      0.0000
    16 C13      2.6249   0.4211  -0.4334   C.2       1 1      0.0000
    17 C14      3.8819   1.2016  -0.6854   C.3       1 1      0.0000
    18 H14B     3.6552   2.2724  -0.6353   H         1 1      0.0000
    19 H14A     4.2836   0.9866  -1.6797   H         1 1      0.0000
    20 N        2.3477  -0.6830  -1.0624   N.pl3     1 1      0.0000
    21 HN       1.4579  -1.1462  -0.7507   H         1 1      0.0000
    22 C        3.1571  -1.3238  -2.1404   C.3       1 1      0.0000
    23 H1A      2.6979  -2.2878  -2.3638   H         1 1      0.0000
    24 H1C      3.1433  -0.6976  -3.0382   H         1 1      0.0000
    25 H1B      4.1860  -1.4770  -1.8059   H         1 1      0.0000
    26 H10A    -0.8522   1.7765   1.4761   H         1 1      0.0000
    27 H10B    -0.0932   0.9445   2.8200   H         1 1      0.0000
    28 H9B     -1.6070  -1.0841   2.3461   H         1 1      0.0000
    29 H5      -4.9663  -0.1836  -2.3837   H         1 1      0.0000
    30 H3      -1.6626  -1.7265  -0.0978   H         1 1      0.0000
    31 H12B     1.3702   1.9622   0.3145   H         1 1      0.0000
    32 C15      4.9628   0.8639   0.3971   C.3       1 1      0.0000
    33 H15A     4.6130   1.1190   1.4023   H         1 1      0.0000
    34 H15B     5.2322  -0.1964   0.3754   H         1 1      0.0000
    35 H15C     5.8615   1.4523   0.1899   H         1 1      0.0000
    36 O2       0.7657  -1.1137   1.4326   O.3       1 1      0.0000
    37 H21     -0.0059  -1.7366   1.3810   H         1 1      0.0000
    38 H22     -0.1176  -0.0258  -0.0392   H         1 1      0.0000
@<TRIPOS>BOND
     1     1     2   ar
     2     1     6   ar
     3     1    29    1
     4     2     3   ar
     5     2     7    1
     6     3     4   ar
     7     3    30    1
     8     4     5   ar
     9     4     8    1
    10     5     6   ar
    11     5     9    1
    12     6    10    1
    13     8    11    1
    14     8    12    1
    15     8    28    1
    16    11    13    1
    17    11    26    1
    18    11    27    1
    19    13    14    1
    20    14    15    1
    21    14    16    1
    22    14    31    1
    23    16    17    1
    24    16    20    2
    25    17    18    1
    26    17    19    1
    27    17    32    1
    28    20    21    1
    29    20    22    1
    30    22    23    1
    31    22    24    1
    32    22    25    1
    33    32    33    1
    34    32    34    1
    35    32    35    1
    36    13    36    1
    37    36    37    1
    38    13    38    1
@<TRIPOS>SUBSTRUCTURE
     1 1           1 GROUP             0 ****  ****    0  
@<TRIPOS>MOLECULE
Molecule Name_00001_00022
    38    38     1     0     0
SMALL
NO_CHARGES
****
Generated from the CSD

@<TRIPOS>ATOM
     1 C5      -4.1856   0.5360  -1.4979   C.ar      1 1      0.0000
     2 C4      -3.2092  -0.4594  -1.6177   C.ar      1 1      0.0000
     3 C3      -2.4600  -0.8437  -0.5005   C.ar      1 1      0.0000
     4 C8      -2.6782  -0.2379   0.7467   C.ar      1 1      0.0000
     5 C7      -3.6535   0.7650   0.8562   C.ar      1 1      0.0000
     6 C6      -4.4034   1.1512  -0.2602   C.ar      1 1      0.0000
     7 H4      -3.0272  -0.9288  -2.5791   H         1 1      0.0000
     8 C9      -1.9142  -0.7074   1.9738   C.3       1 1      0.0000
     9 H7      -3.8183   1.2562   1.8127   H         1 1      0.0000
    10 H6      -5.1496   1.9335  -0.1663   H         1 1      0.0000
    11 C10     -0.5670   0.0481   2.0792   C.3       1 1      0.0000
    12 H9A     -2.5012  -0.5310   2.8820   H         1 1      0.0000
    13 C11      0.4229  -0.3216   1.0108   C.3       1 1      0.0000
    14 C12      1.7661   0.4274   1.0315   C.3       1 1      0.0000
    15 H12A     2.2801   0.2155   1.9797   H         1 1      0.0000
    16 C13      2.7371   0.1923  -0.1058   C.2       1 1      0.0000
    17 C14      4.0536   0.9115  -0.0568   C.3       1 1      0.0000
    18 H14B     4.7818   0.3685  -0.6695   H         1 1      0.0000
    19 H14A     4.4377   0.9557   0.9663   H         1 1      0.0000
    20 N        2.4222  -0.6282  -1.0644   N.pl3     1 1      0.0000
    21 HN       1.4891  -1.0955  -0.9443   H         1 1      0.0000
    22 C        3.2437  -0.9530  -2.2676   C.3       1 1      0.0000
    23 H1A      2.7353  -1.7563  -2.8026   H         1 1      0.0000
    24 H1C      3.3176  -0.0740  -2.9160   H         1 1      0.0000
    25 H1B      4.2416  -1.2849  -1.9708   H         1 1      0.0000
    26 H10A    -0.7399   1.1356   2.0375   H         1 1      0.0000
    27 H10B    -0.1079  -0.1384   3.0632   H         1 1      0.0000
    28 H9B     -1.7232  -1.7848   1.9181   H         1 1      0.0000
    29 H5      -4.7647   0.8374  -2.3646   H         1 1      0.0000
    30 H3      -1.6924  -1.6076  -0.6031   H         1 1      0.0000
    31 H12B     1.5477   1.5076   1.0620   H         1 1      0.0000
    32 C15      3.9050   2.3655  -0.6206   C.3       1 1      0.0000
    33 H15A     3.5737   2.3563  -1.6637   H         1 1      0.0000
    34 H15B     3.1952   2.9524  -0.0298   H         1 1      0.0000
    35 H15C     4.8803   2.8591  -0.5776   H         1 1      0.0000
    36 O2       0.6871  -1.7070   1.1124   O.3       1 1      0.0000
    37 H21     -0.1195  -2.2186   0.8408   H         1 1      0.0000
    38 H22     -0.0455  -0.1409   0.0444   H         1 1      0.0000
@<TRIPOS>BOND
     1     1     2   ar
     2     1     6   ar
     3     1    29    1
     4     2     3   ar
     5     2     7    1
     6     3     4   ar
     7     3    30    1
     8     4     5   ar
     9     4     8    1
    10     5     6   ar
    11     5     9    1
    12     6    10    1
    13     8    11    1
    14     8    12    1
    15     8    28    1
    16    11    13    1
    17    11    26    1
    18    11    27    1
    19    13    14    1
    20    14    15    1
    21    14    16    1
    22    14    31    1
    23    16    17    1
    24    16    20    2
    25    17    18    1
    26    17    19    1
    27    17    32    1
    28    20    21    1
    29    20    22    1
    30    22    23    1
    31    22    24    1
    32    22    25    1
    33    32    33    1
    34    32    34    1
    35    32    35    1
    36    13    36    1
    37    36    37    1
    38    13    38    1
@<TRIPOS>SUBSTRUCTURE
     1 1           1 GROUP             0 ****  ****    0  
@<TRIPOS>MOLECULE
Molecule Name_00001_00023
    38    38     1     0     0
SMALL
NO_CHARGES
****
Generated from the CSD

@<TRIPOS>ATOM
     1 C5      -4.7743   0.6082   1.1320   C.ar      1 1      0.0000
     2 C4      -3.5957   1.2775   1.4806   C.ar      1 1      0.0000
     3 C3      -2.4266   1.0683   0.7412   C.ar      1 1      0.0000
     4 C8      -2.4229   0.1890  -0.3528   C.ar      1 1      0.0000
     5 C7      -3.6069  -0.4842  -0.6904   C.ar      1 1      0.0000
     6 C6      -4.7769  -0.2768   0.0483   C.ar      1 1      0.0000
     7 H4      -3.5857   1.9537   2.3293   H         1 1      0.0000
     8 C9      -1.1714   0.0187  -1.1982   C.3       1 1      0.0000
     9 H7      -3.6119  -1.1834  -1.5236   H         1 1      0.0000
    10 H6      -5.6851  -0.8087  -0.2164   H         1 1      0.0000
    11 C10     -0.2593  -1.0688  -0.5800   C.3       1 1      0.0000
    12 H9A     -1.4361  -0.2686  -2.2219   H         1 1      0.0000
    13 C11      1.0087  -1.3089  -1.3500   C.3       1 1      0.0000
    14 C12      2.0561  -0.1833  -1.3144   C.3       1 1      0.0000
    15 H12A     1.6124   0.7326  -1.7296   H         1 1      0.0000
    16 C13      2.7036   0.1535   0.0119   C.2       1 1      0.0000
    17 C14      3.5951   1.3599   0.0646   C.3       1 1      0.0000
    18 H14B     4.1787   1.4151  -0.8610   H         1 1      0.0000
    19 H14A     4.2948   1.2933   0.9027   H         1 1      0.0000
    20 N        2.4571  -0.5817   1.0559   N.pl3     1 1      0.0000
    21 HN       1.7788  -1.3649   0.8826   H         1 1      0.0000
    22 C        3.0283  -0.4097   2.4242   C.3       1 1      0.0000
    23 H1A      2.5256  -1.1224   3.0794   H         1 1      0.0000
    24 H1C      4.1017  -0.6240   2.4089   H         1 1      0.0000
    25 H1B      2.8540   0.6065   2.7860   H         1 1      0.0000
    26 H10A     0.0037  -0.7971   0.4550   H         1 1      0.0000
    27 H10B    -0.8091  -2.0205  -0.5028   H         1 1      0.0000
    28 H9B     -0.6195   0.9630  -1.2614   H         1 1      0.0000
    29 H5      -5.6806   0.7669   1.7071   H         1 1      0.0000
    30 H3      -1.5100   1.5803   1.0259   H         1 1      0.0000
    31 H12B     2.8620  -0.4523  -2.0170   H         1 1      0.0000
    32 C15      2.7416   2.6664   0.2013   C.3       1 1      0.0000
    33 H15A     2.0673   2.7927  -0.6514   H         1 1      0.0000
    34 H15B     2.1501   2.6626   1.1218   H         1 1      0.0000
    35 H15C     3.4185   3.5253   0.2301   H         1 1      0.0000
    36 O2       1.6102  -2.4891  -0.8552   O.3       1 1      0.0000
    37 H21      0.9879  -3.2535  -0.9761   H         1 1      0.0000
    38 H22      0.7397  -1.4822  -2.3909   H         1 1      0.0000
@<TRIPOS>BOND
     1     1     2   ar
     2     1     6   ar
     3     1    29    1
     4     2     3   ar
     5     2     7    1
     6     3     4   ar
     7     3    30    1
     8     4     5   ar
     9     4     8    1
    10     5     6   ar
    11     5     9    1
    12     6    10    1
    13     8    11    1
    14     8    12    1
    15     8    28    1
    16    11    13    1
    17    11    26    1
    18    11    27    1
    19    13    14    1
    20    14    15    1
    21    14    16    1
    22    14    31    1
    23    16    17    1
    24    16    20    2
    25    17    18    1
    26    17    19    1
    27    17    32    1
    28    20    21    1
    29    20    22    1
    30    22    23    1
    31    22    24    1
    32    22    25    1
    33    32    33    1
    34    32    34    1
    35    32    35    1
    36    13    36    1
    37    36    37    1
    38    13    38    1
@<TRIPOS>SUBSTRUCTURE
     1 1           1 GROUP             0 ****  ****    0  
@<TRIPOS>MOLECULE
Molecule Name_00001_00024
    38    38     1     0     0
SMALL
NO_CHARGES
****
Generated from the CSD

@<TRIPOS>ATOM
     1 C5      -4.9724   0.2861   1.1176   C.ar      1 1      0.0000
     2 C4      -3.8503   1.0019   1.5502   C.ar      1 1      0.0000
     3 C3      -2.6569   0.9400   0.8227   C.ar      1 1      0.0000
     4 C8      -2.5723   0.1630  -0.3432   C.ar      1 1      0.0000
     5 C7      -3.6997  -0.5579  -0.7653   C.ar      1 1      0.0000
     6 C6      -4.8940  -0.4979  -0.0386   C.ar      1 1      0.0000
     7 H4      -3.9027   1.5996   2.4544   H         1 1      0.0000
     8 C9      -1.2978   0.1549  -1.1710   C.3       1 1      0.0000
     9 H7      -3.6411  -1.1796  -1.6559   H         1 1      0.0000
    10 H6      -5.7575  -1.0658  -0.3695   H         1 1      0.0000
    11 C10     -0.3216  -0.9173  -0.6286   C.3       1 1      0.0000
    12 H9A     -1.5240  -0.0585  -2.2216   H         1 1      0.0000
    13 C11      0.9732  -1.0004  -1.3869   C.3       1 1      0.0000
    14 C12      1.9375   0.1874  -1.2295   C.3       1 1      0.0000
    15 H12A     1.4371   1.1035  -1.5738   H         1 1      0.0000
    16 C13      2.5368   0.4498   0.1356   C.2       1 1      0.0000
    17 C14      3.3396   1.7055   0.3135   C.3       1 1      0.0000
    18 H14B     3.3579   1.9718   1.3762   H         1 1      0.0000
    19 H14A     2.8915   2.5379  -0.2365   H         1 1      0.0000
    20 N        2.3254  -0.3899   1.1058   N.pl3     1 1      0.0000
    21 HN       1.7073  -1.1998   0.8495   H         1 1      0.0000
    22 C        2.8595  -0.3003   2.4967   C.3       1 1      0.0000
    23 H1A      2.3976  -1.1010   3.0758   H         1 1      0.0000
    24 H1C      3.9456  -0.4377   2.4878   H         1 1      0.0000
    25 H1B      2.6075   0.6656   2.9413   H         1 1      0.0000
    26 H10A    -0.0961  -0.7205   0.4320   H         1 1      0.0000
    27 H10B    -0.8037  -1.9078  -0.6470   H         1 1      0.0000
    28 H9B     -0.8131   1.1370  -1.1391   H         1 1      0.0000
    29 H5      -5.8974   0.3304   1.6832   H         1 1      0.0000
    30 H3      -1.7839   1.4870   1.1719   H         1 1      0.0000
    31 H12B     2.7722   0.0378  -1.9340   H         1 1      0.0000
    32 C15      4.8114   1.4890  -0.1774   C.3       1 1      0.0000
    33 H15A     5.3086   0.6973   0.3915   H         1 1      0.0000
    34 H15B     4.8442   1.2337  -1.2409   H         1 1      0.0000
    35 H15C     5.3703   2.4176  -0.0284   H         1 1      0.0000
    36 O2       1.6483  -2.1752  -0.9827   O.3       1 1      0.0000
    37 H21      1.0839  -2.9671  -1.1839   H         1 1      0.0000
    38 H22      0.7349  -1.0992  -2.4449   H         1 1      0.0000
@<TRIPOS>BOND
     1     1     2   ar
     2     1     6   ar
     3     1    29    1
     4     2     3   ar
     5     2     7    1
     6     3     4   ar
     7     3    30    1
     8     4     5   ar
     9     4     8    1
    10     5     6   ar
    11     5     9    1
    12     6    10    1
    13     8    11    1
    14     8    12    1
    15     8    28    1
    16    11    13    1
    17    11    26    1
    18    11    27    1
    19    13    14    1
    20    14    15    1
    21    14    16    1
    22    14    31    1
    23    16    17    1
    24    16    20    2
    25    17    18    1
    26    17    19    1
    27    17    32    1
    28    20    21    1
    29    20    22    1
    30    22    23    1
    31    22    24    1
    32    22    25    1
    33    32    33    1
    34    32    34    1
    35    32    35    1
    36    13    36    1
    37    36    37    1
    38    13    38    1
@<TRIPOS>SUBSTRUCTURE
     1 1           1 GROUP             0 ****  ****    0  
@<TRIPOS>MOLECULE
Molecule Name_00001_00025
    38    38     1     0     0
SMALL
NO_CHARGES
****
Generated from the CSD

@<TRIPOS>ATOM
     1 C5      -4.8873   1.0847  -0.9226   C.ar      1 1      0.0000
     2 C4      -4.0601   0.2907  -1.7250   C.ar      1 1      0.0000
     3 C3      -2.9752  -0.3865  -1.1580   C.ar      1 1      0.0000
     4 C8      -2.7056  -0.2774   0.2152   C.ar      1 1      0.0000
     5 C7      -3.5352   0.5273   1.0109   C.ar      1 1      0.0000
     6 C6      -4.6203   1.2059   0.4456   C.ar      1 1      0.0000
     7 H4      -4.2551   0.2056  -2.7892   H         1 1      0.0000
     8 C9      -1.5708  -1.0711   0.8414   C.3       1 1      0.0000
     9 H7      -3.3250   0.6360   2.0726   H         1 1      0.0000
    10 H6      -5.2508   1.8321   1.0686   H         1 1      0.0000
    11 C10     -0.2449  -0.2803   0.7247   C.3       1 1      0.0000
    12 H9A     -1.7811  -1.2730   1.8976   H         1 1      0.0000
    13 C11      0.9399  -0.9883   1.3190   C.3       1 1      0.0000
    14 C12      2.2863  -0.2480   1.2507   C.3       1 1      0.0000
    15 H12A     3.0107  -0.7609   1.8990   H         1 1      0.0000
    16 C13      2.9210  -0.0356  -0.1071   C.2       1 1      0.0000
    17 C14      2.4022   1.0938  -0.9488   C.3       1 1      0.0000
    18 H14B     1.3166   1.1674  -0.8202   H         1 1      0.0000
    19 H14A     2.6065   0.9180  -2.0088   H         1 1      0.0000
    20 N        3.8954  -0.8060  -0.4920   N.pl3     1 1      0.0000
    21 HN       4.1851  -1.5239   0.2181   H         1 1      0.0000
    22 C        4.6112  -0.7541  -1.8008   C.3       1 1      0.0000
    23 H1A      5.4403  -1.4610  -1.7474   H         1 1      0.0000
    24 H1C      3.9329  -1.0493  -2.6078   H         1 1      0.0000
    25 H1B      4.9981   0.2510  -1.9851   H         1 1      0.0000
    26 H10A    -0.0288  -0.0599  -0.3332   H         1 1      0.0000
    27 H10B    -0.3490   0.7016   1.2135   H         1 1      0.0000
    28 H9B     -1.4605  -2.0409   0.3439   H         1 1      0.0000
    29 H5      -5.7268   1.6134  -1.3620   H         1 1      0.0000
    30 H3      -2.3272  -0.9905  -1.7894   H         1 1      0.0000
    31 H12B     2.1473   0.7446   1.7099   H         1 1      0.0000
    32 C15      3.0550   2.4487  -0.5102   C.3       1 1      0.0000
    33 H15A     2.8234   2.6829   0.5334   H         1 1      0.0000
    34 H15B     4.1418   2.4271  -0.6347   H         1 1      0.0000
    35 H15C     2.6521   3.2502  -1.1364   H         1 1      0.0000
    36 O2       0.6552  -1.2650   2.6761   O.3       1 1      0.0000
    37 H21     -0.0437  -1.9682   2.7310   H         1 1      0.0000
    38 H22      1.0550  -1.9394   0.8012   H         1 1      0.0000
@<TRIPOS>BOND
     1     1     2   ar
     2     1     6   ar
     3     1    29    1
     4     2     3   ar
     5     2     7    1
     6     3     4   ar
     7     3    30    1
     8     4     5   ar
     9     4     8    1
    10     5     6   ar
    11     5     9    1
    12     6    10    1
    13     8    11    1
    14     8    12    1
    15     8    28    1
    16    11    13    1
    17    11    26    1
    18    11    27    1
    19    13    14    1
    20    14    15    1
    21    14    16    1
    22    14    31    1
    23    16    17    1
    24    16    20    2
    25    17    18    1
    26    17    19    1
    27    17    32    1
    28    20    21    1
    29    20    22    1
    30    22    23    1
    31    22    24    1
    32    22    25    1
    33    32    33    1
    34    32    34    1
    35    32    35    1
    36    13    36    1
    37    36    37    1
    38    13    38    1
@<TRIPOS>SUBSTRUCTURE
     1 1           1 GROUP             0 ****  ****    0  
@<TRIPOS>MOLECULE
Molecule Name_00001_00026
    38    38     1     0     0
SMALL
NO_CHARGES
****
Generated from the CSD

@<TRIPOS>ATOM
     1 C5      -4.8447  -0.2502   1.3348   C.ar      1 1      0.0000
     2 C4      -3.8873   0.6509   1.8144   C.ar      1 1      0.0000
     3 C3      -2.7591   0.9504   1.0432   C.ar      1 1      0.0000
     4 C8      -2.5759   0.3532  -0.2137   C.ar      1 1      0.0000
     5 C7      -3.5366  -0.5553  -0.6834   C.ar      1 1      0.0000
     6 C6      -4.6653  -0.8567   0.0867   C.ar      1 1      0.0000
     7 H4      -4.0155   1.1124   2.7883   H         1 1      0.0000
     8 C9      -1.3872   0.7349  -1.0804   C.3       1 1      0.0000
     9 H7      -3.3961  -1.0400  -1.6470   H         1 1      0.0000
    10 H6      -5.3981  -1.5668  -0.2825   H         1 1      0.0000
    11 C10     -0.1625  -0.1378  -0.7127   C.3       1 1      0.0000
    12 H9A     -1.6257   0.5972  -2.1409   H         1 1      0.0000
    13 C11      1.0670   0.1682  -1.5208   C.3       1 1      0.0000
    14 C12      2.3345  -0.6290  -1.1693   C.3       1 1      0.0000
    15 H12A     3.0827  -0.4800  -1.9607   H         1 1      0.0000
    16 C13      2.9933  -0.3766   0.1701   C.2       1 1      0.0000
    17 C14      3.7175   0.9250   0.3552   C.3       1 1      0.0000
    18 H14B     4.2440   1.1774  -0.5719   H         1 1      0.0000
    19 H14A     4.4586   0.8503   1.1560   H         1 1      0.0000
    20 N        2.8968  -1.2652   1.1147   N.pl3     1 1      0.0000
    21 HN       2.3215  -2.1064   0.8597   H         1 1      0.0000
    22 C        3.5040  -1.1906   2.4762   C.3       1 1      0.0000
    23 H1A      3.1325  -2.0432   3.0462   H         1 1      0.0000
    24 H1C      4.5945  -1.2506   2.4011   H         1 1      0.0000
    25 H1B      3.2131  -0.2624   2.9740   H         1 1      0.0000
    26 H10A     0.0797  -0.0174   0.3556   H         1 1      0.0000
    27 H10B    -0.4097  -1.2040  -0.8391   H         1 1      0.0000
    28 H9B     -1.1349   1.7920  -0.9419   H         1 1      0.0000
    29 H5      -5.7182  -0.4860   1.9338   H         1 1      0.0000
    30 H3      -2.0111   1.6404   1.4277   H         1 1      0.0000
    31 H12B     2.0809  -1.7009  -1.2165   H         1 1      0.0000
    32 C15      2.7047   2.0729   0.6883   C.3       1 1      0.0000
    33 H15A     2.3951   2.6057  -0.2161   H         1 1      0.0000
    34 H15B     1.8142   1.6860   1.1927   H         1 1      0.0000
    35 H15C     3.1944   2.7893   1.3546   H         1 1      0.0000
    36 O2       0.7674  -0.0555  -2.8844   O.3       1 1      0.0000
    37 H21      0.3851   0.7715  -3.2793   H         1 1      0.0000
    38 H22      1.2930   1.2263  -1.3976   H         1 1      0.0000
@<TRIPOS>BOND
     1     1     2   ar
     2     1     6   ar
     3     1    29    1
     4     2     3   ar
     5     2     7    1
     6     3     4   ar
     7     3    30    1
     8     4     5   ar
     9     4     8    1
    10     5     6   ar
    11     5     9    1
    12     6    10    1
    13     8    11    1
    14     8    12    1
    15     8    28    1
    16    11    13    1
    17    11    26    1
    18    11    27    1
    19    13    14    1
    20    14    15    1
    21    14    16    1
    22    14    31    1
    23    16    17    1
    24    16    20    2
    25    17    18    1
    26    17    19    1
    27    17    32    1
    28    20    21    1
    29    20    22    1
    30    22    23    1
    31    22    24    1
    32    22    25    1
    33    32    33    1
    34    32    34    1
    35    32    35    1
    36    13    36    1
    37    36    37    1
    38    13    38    1
@<TRIPOS>SUBSTRUCTURE
     1 1           1 GROUP             0 ****  ****    0  
@<TRIPOS>MOLECULE
Molecule Name_00001_00027
    38    38     1     0     0
SMALL
NO_CHARGES
****
Generated from the CSD

@<TRIPOS>ATOM
     1 C5      -5.0037  -0.7094   1.1651   C.ar      1 1      0.0000
     2 C4      -4.1103   0.1161   1.8570   C.ar      1 1      0.0000
     3 C3      -2.9868   0.6347   1.2042   C.ar      1 1      0.0000
     4 C8      -2.7444   0.3339  -0.1452   C.ar      1 1      0.0000
     5 C7      -3.6409  -0.5012  -0.8292   C.ar      1 1      0.0000
     6 C6      -4.7648  -1.0214  -0.1778   C.ar      1 1      0.0000
     7 H4      -4.2842   0.3488   2.9026   H         1 1      0.0000
     8 C9      -1.5635   0.9564  -0.8716   C.3       1 1      0.0000
     9 H7      -3.4535  -0.7581  -1.8694   H         1 1      0.0000
    10 H6      -5.4474  -1.6727  -0.7139   H         1 1      0.0000
    11 C10     -0.2971   0.0910  -0.6613   C.3       1 1      0.0000
    12 H9A     -1.7728   1.0387  -1.9440   H         1 1      0.0000
    13 C11      0.9279   0.6291  -1.3454   C.3       1 1      0.0000
    14 C12      2.2328  -0.1569  -1.1335   C.3       1 1      0.0000
    15 H12A     2.9862   0.1991  -1.8503   H         1 1      0.0000
    16 C13      2.8494  -0.1657   0.2490   C.2       1 1      0.0000
    17 C14      3.4925   1.1016   0.7322   C.3       1 1      0.0000
    18 H14B     3.5205   1.0943   1.8275   H         1 1      0.0000
    19 H14A     2.9199   1.9773   0.4138   H         1 1      0.0000
    20 N        2.7867  -1.2414   0.9771   N.pl3     1 1      0.0000
    21 HN       2.2667  -2.0367   0.5293   H         1 1      0.0000
    22 C        3.3619  -1.4310   2.3414   C.3       1 1      0.0000
    23 H1A      3.0298  -2.4051   2.7029   H         1 1      0.0000
    24 H1C      4.4553  -1.4155   2.2896   H         1 1      0.0000
    25 H1B      3.0075  -0.6491   3.0175   H         1 1      0.0000
    26 H10A    -0.0833  -0.0097   0.4151   H         1 1      0.0000
    27 H10B    -0.4789  -0.9343  -1.0214   H         1 1      0.0000
    28 H9B     -1.3763   1.9704  -0.5014   H         1 1      0.0000
    29 H5      -5.8734  -1.1151   1.6714   H         1 1      0.0000
    30 H3      -2.2882   1.2639   1.7514   H         1 1      0.0000
    31 H12B     2.0432  -1.2051  -1.4179   H         1 1      0.0000
    32 C15      4.9585   1.2129   0.1911   C.3       1 1      0.0000
    33 H15A     5.5754   0.3780   0.5377   H         1 1      0.0000
    34 H15B     4.9798   1.2376  -0.9026   H         1 1      0.0000
    35 H15C     5.4003   2.1409   0.5656   H         1 1      0.0000
    36 O2       0.6685   0.6901  -2.7341   O.3       1 1      0.0000
    37 H21     -0.0235   1.3799  -2.9116   H         1 1      0.0000
    38 H22      1.0891   1.6460  -0.9907   H         1 1      0.0000
@<TRIPOS>BOND
     1     1     2   ar
     2     1     6   ar
     3     1    29    1
     4     2     3   ar
     5     2     7    1
     6     3     4   ar
     7     3    30    1
     8     4     5   ar
     9     4     8    1
    10     5     6   ar
    11     5     9    1
    12     6    10    1
    13     8    11    1
    14     8    12    1
    15     8    28    1
    16    11    13    1
    17    11    26    1
    18    11    27    1
    19    13    14    1
    20    14    15    1
    21    14    16    1
    22    14    31    1
    23    16    17    1
    24    16    20    2
    25    17    18    1
    26    17    19    1
    27    17    32    1
    28    20    21    1
    29    20    22    1
    30    22    23    1
    31    22    24    1
    32    22    25    1
    33    32    33    1
    34    32    34    1
    35    32    35    1
    36    13    36    1
    37    36    37    1
    38    13    38    1
@<TRIPOS>SUBSTRUCTURE
     1 1           1 GROUP             0 ****  ****    0  
@<TRIPOS>MOLECULE
Molecule Name_00001_00028
    38    38     1     0     0
SMALL
NO_CHARGES
****
Generated from the CSD

@<TRIPOS>ATOM
     1 C5      -4.2875  -1.1761  -0.9416   C.ar      1 1      0.0000
     2 C4      -4.5937  -0.6501   0.3186   C.ar      1 1      0.0000
     3 C3      -3.7257   0.2637   0.9258   C.ar      1 1      0.0000
     4 C8      -2.5439   0.6608   0.2811   C.ar      1 1      0.0000
     5 C7      -2.2405   0.1223  -0.9786   C.ar      1 1      0.0000
     6 C6      -3.1070  -0.7923  -1.5873   C.ar      1 1      0.0000
     7 H4      -5.5012  -0.9562   0.8290   H         1 1      0.0000
     8 C9      -1.6394   1.7078   0.9101   C.3       1 1      0.0000
     9 H7      -1.3179   0.4067  -1.4797   H         1 1      0.0000
    10 H6      -2.8588  -1.2088  -2.5582   H         1 1      0.0000
    11 C10     -0.6421   1.0305   1.8815   C.3       1 1      0.0000
    12 H9A     -1.0824   2.2481   0.1366   H         1 1      0.0000
    13 C11      0.3903   0.1793   1.1975   C.3       1 1      0.0000
    14 C12      1.4409   0.9208   0.3539   C.3       1 1      0.0000
    15 H12A     2.0152   1.5933   1.0066   H         1 1      0.0000
    16 C13      2.4128   0.0999  -0.4666   C.2       1 1      0.0000
    17 C14      3.4477   0.8388  -1.2640   C.3       1 1      0.0000
    18 H14B     2.9953   1.7413  -1.6897   H         1 1      0.0000
    19 H14A     3.8185   0.2242  -2.0892   H         1 1      0.0000
    20 N        2.3428  -1.1984  -0.4416   N.pl3     1 1      0.0000
    21 HN       1.5997  -1.5791   0.1958   H         1 1      0.0000
    22 C        3.1983  -2.1536  -1.2057   C.3       1 1      0.0000
    23 H1A      2.9479  -3.1595  -0.8658   H         1 1      0.0000
    24 H1C      2.9866  -2.0682  -2.2764   H         1 1      0.0000
    25 H1B      4.2559  -1.9555  -1.0158   H         1 1      0.0000
    26 H10A    -0.1250   1.7942   2.4846   H         1 1      0.0000
    27 H10B    -1.1889   0.4057   2.6057   H         1 1      0.0000
    28 H9B     -2.2326   2.4490   1.4568   H         1 1      0.0000
    29 H5      -4.9582  -1.8877  -1.4119   H         1 1      0.0000
    30 H3      -3.9619   0.6579   1.9118   H         1 1      0.0000
    31 H12B     0.9040   1.5886  -0.3399   H         1 1      0.0000
    32 C15      4.6472   1.2599  -0.3484   C.3       1 1      0.0000
    33 H15A     4.3188   1.9222   0.4585   H         1 1      0.0000
    34 H15B     5.1407   0.3871   0.0898   H         1 1      0.0000
    35 H15C     5.3786   1.8005  -0.9562   H         1 1      0.0000
    36 O2       1.0667  -0.5745   2.1842   O.3       1 1      0.0000
    37 H21      0.4157  -1.1492   2.6659   H         1 1      0.0000
    38 H22     -0.1315  -0.5180   0.5438   H         1 1      0.0000
@<TRIPOS>BOND
     1     1     2   ar
     2     1     6   ar
     3     1    29    1
     4     2     3   ar
     5     2     7    1
     6     3     4   ar
     7     3    30    1
     8     4     5   ar
     9     4     8    1
    10     5     6   ar
    11     5     9    1
    12     6    10    1
    13     8    11    1
    14     8    12    1
    15     8    28    1
    16    11    13    1
    17    11    26    1
    18    11    27    1
    19    13    14    1
    20    14    15    1
    21    14    16    1
    22    14    31    1
    23    16    17    1
    24    16    20    2
    25    17    18    1
    26    17    19    1
    27    17    32    1
    28    20    21    1
    29    20    22    1
    30    22    23    1
    31    22    24    1
    32    22    25    1
    33    32    33    1
    34    32    34    1
    35    32    35    1
    36    13    36    1
    37    36    37    1
    38    13    38    1
@<TRIPOS>SUBSTRUCTURE
     1 1           1 GROUP             0 ****  ****    0  
@<TRIPOS>MOLECULE
Molecule Name_00001_00029
    38    38     1     0     0
SMALL
NO_CHARGES
****
Generated from the CSD

@<TRIPOS>ATOM
     1 C5      -4.1481  -0.5537  -1.3847   C.ar      1 1      0.0000
     2 C4      -4.5195  -0.5219  -0.0358   C.ar      1 1      0.0000
     3 C3      -3.6640   0.0486   0.9128   C.ar      1 1      0.0000
     4 C8      -2.4299   0.5924   0.5241   C.ar      1 1      0.0000
     5 C7      -2.0617   0.5490  -0.8293   C.ar      1 1      0.0000
     6 C6      -2.9156  -0.0218  -1.7795   C.ar      1 1      0.0000
     7 H4      -5.4681  -0.9464   0.2765   H         1 1      0.0000
     8 C9      -1.5351   1.2761   1.5448   C.3       1 1      0.0000
     9 H7      -1.0992   0.9490  -1.1404   H         1 1      0.0000
    10 H6      -2.6176  -0.0574  -2.8224   H         1 1      0.0000
    11 C10     -0.6268   0.2305   2.2366   C.3       1 1      0.0000
    12 H9A     -0.9109   2.0352   1.0604   H         1 1      0.0000
    13 C11      0.4201  -0.3582   1.3335   C.3       1 1      0.0000
    14 C12      1.5478   0.5862   0.8842   C.3       1 1      0.0000
    15 H12A     2.0995   0.9326   1.7695   H         1 1      0.0000
    16 C13      2.5444   0.0800  -0.1368   C.2       1 1      0.0000
    17 C14      3.6533   1.0054  -0.5450   C.3       1 1      0.0000
    18 H14B     4.4880   0.4137  -0.9370   H         1 1      0.0000
    19 H14A     4.0183   1.5806   0.3107   H         1 1      0.0000
    20 N        2.4305  -1.1272  -0.6067   N.pl3     1 1      0.0000
    21 HN       1.6348  -1.6773  -0.1969   H         1 1      0.0000
    22 C        3.3029  -1.7724  -1.6318   C.3       1 1      0.0000
    23 H1A      2.9979  -2.8169  -1.7090   H         1 1      0.0000
    24 H1C      3.1652  -1.2807  -2.6001   H         1 1      0.0000
    25 H1B      4.3516  -1.7184  -1.3296   H         1 1      0.0000
    26 H10A    -0.1260   0.6831   3.1076   H         1 1      0.0000
    27 H10B    -1.2404  -0.5888   2.6441   H         1 1      0.0000
    28 H9B     -2.1386   1.7902   2.3010   H         1 1      0.0000
    29 H5      -4.8091  -0.9993  -2.1208   H         1 1      0.0000
    30 H3      -3.9518   0.0573   1.9619   H         1 1      0.0000
    31 H12B     1.0800   1.4937   0.4681   H         1 1      0.0000
    32 C15      3.1635   1.9882  -1.6624   C.3       1 1      0.0000
    33 H15A     2.8415   1.4458  -2.5567   H         1 1      0.0000
    34 H15B     2.3362   2.6122  -1.3108   H         1 1      0.0000
    35 H15C     3.9943   2.6427  -1.9418   H         1 1      0.0000
    36 O2       1.0049  -1.4627   1.9949   O.3       1 1      0.0000
    37 H21      0.3050  -2.1391   2.1918   H         1 1      0.0000
    38 H22     -0.0799  -0.7300   0.4404   H         1 1      0.0000
@<TRIPOS>BOND
     1     1     2   ar
     2     1     6   ar
     3     1    29    1
     4     2     3   ar
     5     2     7    1
     6     3     4   ar
     7     3    30    1
     8     4     5   ar
     9     4     8    1
    10     5     6   ar
    11     5     9    1
    12     6    10    1
    13     8    11    1
    14     8    12    1
    15     8    28    1
    16    11    13    1
    17    11    26    1
    18    11    27    1
    19    13    14    1
    20    14    15    1
    21    14    16    1
    22    14    31    1
    23    16    17    1
    24    16    20    2
    25    17    18    1
    26    17    19    1
    27    17    32    1
    28    20    21    1
    29    20    22    1
    30    22    23    1
    31    22    24    1
    32    22    25    1
    33    32    33    1
    34    32    34    1
    35    32    35    1
    36    13    36    1
    37    36    37    1
    38    13    38    1
@<TRIPOS>SUBSTRUCTURE
     1 1           1 GROUP             0 ****  ****    0  
@<TRIPOS>MOLECULE
Molecule Name_00001_00030
    38    38     1     0     0
SMALL
NO_CHARGES
****
Generated from the CSD

@<TRIPOS>ATOM
     1 C5      -5.0273  -0.4295  -1.0561   C.ar      1 1      0.0000
     2 C4      -5.0706  -0.7863   0.2965   C.ar      1 1      0.0000
     3 C3      -3.9220  -0.6747   1.0874   C.ar      1 1      0.0000
     4 C8      -2.7195  -0.2061   0.5357   C.ar      1 1      0.0000
     5 C7      -2.6827   0.1418  -0.8232   C.ar      1 1      0.0000
     6 C6      -3.8302   0.0302  -1.6161   C.ar      1 1      0.0000
     7 H4      -5.9933  -1.1570   0.7311   H         1 1      0.0000
     8 C9      -1.4930  -0.0171   1.4132   C.3       1 1      0.0000
     9 H7      -1.7518   0.4872  -1.2675   H         1 1      0.0000
    10 H6      -3.7888   0.2943  -2.6679   H         1 1      0.0000
    11 C10     -0.3086   0.5021   0.5621   C.3       1 1      0.0000
    12 H9A     -1.7029   0.6972   2.2171   H         1 1      0.0000
    13 C11      0.9544   0.7204   1.3467   C.3       1 1      0.0000
    14 C12      2.1855   1.1834   0.5495   C.3       1 1      0.0000
    15 H12A     2.9514   1.5445   1.2503   H         1 1      0.0000
    16 C13      2.8314   0.2042  -0.4074   C.2       1 1      0.0000
    17 C14      4.0254   0.6758  -1.1852   C.3       1 1      0.0000
    18 H14B     3.8674   1.7168  -1.4883   H         1 1      0.0000
    19 H14A     4.1648   0.0770  -2.0897   H         1 1      0.0000
    20 N        2.3597  -1.0032  -0.5116   N.pl3     1 1      0.0000
    21 HN       1.5508  -1.2078   0.1267   H         1 1      0.0000
    22 C        2.8544  -2.0799  -1.4193   C.3       1 1      0.0000
    23 H1A      2.3106  -2.9922  -1.1701   H         1 1      0.0000
    24 H1C      2.6536  -1.8098  -2.4610   H         1 1      0.0000
    25 H1B      3.9253  -2.2405  -1.2735   H         1 1      0.0000
    26 H10A    -0.0959  -0.2023  -0.2582   H         1 1      0.0000
    27 H10B    -0.5854   1.4489   0.0714   H         1 1      0.0000
    28 H9B     -1.2117  -0.9633   1.8885   H         1 1      0.0000
    29 H5      -5.9165  -0.5192  -1.6713   H         1 1      0.0000
    30 H3      -3.9581  -0.9674   2.1344   H         1 1      0.0000
    31 H12B     1.8929   2.0720  -0.0340   H         1 1      0.0000
    32 C15      5.3186   0.5979  -0.3044   C.3       1 1      0.0000
    33 H15A     5.2339   1.2308   0.5844   H         1 1      0.0000
    34 H15B     5.5252  -0.4291   0.0117   H         1 1      0.0000
    35 H15C     6.1671   0.9537  -0.8961   H         1 1      0.0000
    36 O2       0.6912   1.6799   2.3513   O.3       1 1      0.0000
    37 H21      0.0597   1.2985   3.0160   H         1 1      0.0000
    38 H22      1.2084  -0.2174   1.8386   H         1 1      0.0000
@<TRIPOS>BOND
     1     1     2   ar
     2     1     6   ar
     3     1    29    1
     4     2     3   ar
     5     2     7    1
     6     3     4   ar
     7     3    30    1
     8     4     5   ar
     9     4     8    1
    10     5     6   ar
    11     5     9    1
    12     6    10    1
    13     8    11    1
    14     8    12    1
    15     8    28    1
    16    11    13    1
    17    11    26    1
    18    11    27    1
    19    13    14    1
    20    14    15    1
    21    14    16    1
    22    14    31    1
    23    16    17    1
    24    16    20    2
    25    17    18    1
    26    17    19    1
    27    17    32    1
    28    20    21    1
    29    20    22    1
    30    22    23    1
    31    22    24    1
    32    22    25    1
    33    32    33    1
    34    32    34    1
    35    32    35    1
    36    13    36    1
    37    36    37    1
    38    13    38    1
@<TRIPOS>SUBSTRUCTURE
     1 1           1 GROUP             0 ****  ****    0  
@<TRIPOS>MOLECULE
Molecule Name_00001_00031
    38    38     1     0     0
SMALL
NO_CHARGES
****
Generated from the CSD

@<TRIPOS>ATOM
     1 C5      -4.8837   0.2164  -1.1739   C.ar      1 1      0.0000
     2 C4      -5.0141  -0.5979  -0.0432   C.ar      1 1      0.0000
     3 C3      -3.9028  -0.8550   0.7667   C.ar      1 1      0.0000
     4 C8      -2.6508  -0.3021   0.4555   C.ar      1 1      0.0000
     5 C7      -2.5270   0.5065  -0.6846   C.ar      1 1      0.0000
     6 C6      -3.6372   0.7643  -1.4963   C.ar      1 1      0.0000
     7 H4      -5.9760  -1.0366   0.2022   H         1 1      0.0000
     8 C9      -1.4621  -0.5235   1.3763   C.3       1 1      0.0000
     9 H7      -1.5579   0.9246  -0.9478   H         1 1      0.0000
    10 H6      -3.5287   1.3845  -2.3802   H         1 1      0.0000
    11 C10     -0.2103   0.1852   0.8038   C.3       1 1      0.0000
    12 H9A     -1.6743  -0.1325   2.3775   H         1 1      0.0000
    13 C11      1.0211   0.0219   1.6494   C.3       1 1      0.0000
    14 C12      2.3137   0.6558   1.1082   C.3       1 1      0.0000
    15 H12A     3.0612   0.6890   1.9133   H         1 1      0.0000
    16 C13      2.9545   0.0435  -0.1191   C.2       1 1      0.0000
    17 C14      4.2096   0.6809  -0.6401   C.3       1 1      0.0000
    18 H14B     4.7675  -0.0552  -1.2296   H         1 1      0.0000
    19 H14A     4.8505   1.0127   0.1817   H         1 1      0.0000
    20 N        2.4256  -1.0115  -0.6653   N.pl3     1 1      0.0000
    21 HN       1.5758  -1.3762  -0.1670   H         1 1      0.0000
    22 C        2.9081  -1.7219  -1.8862   C.3       1 1      0.0000
    23 H1A      2.3050  -2.6239  -1.9985   H         1 1      0.0000
    24 H1C      2.7748  -1.0834  -2.7654   H         1 1      0.0000
    25 H1B      3.9603  -1.9960  -1.7780   H         1 1      0.0000
    26 H10A     0.0061  -0.1909  -0.2092   H         1 1      0.0000
    27 H10B    -0.4116   1.2613   0.6803   H         1 1      0.0000
    28 H9B     -1.2555  -1.5938   1.4857   H         1 1      0.0000
    29 H5      -5.7442   0.4134  -1.8048   H         1 1      0.0000
    30 H3      -4.0072  -1.5005   1.6361   H         1 1      0.0000
    31 H12B     2.0984   1.7120   0.8768   H         1 1      0.0000
    32 C15      3.8635   1.9032  -1.5570   C.3       1 1      0.0000
    33 H15A     3.2670   1.5962  -2.4216   H         1 1      0.0000
    34 H15B     3.3160   2.6736  -1.0056   H         1 1      0.0000
    35 H15C     4.7966   2.3400  -1.9249   H         1 1      0.0000
    36 O2       0.7584   0.5729   2.9249   O.3       1 1      0.0000
    37 H21      0.0748   0.0220   3.3890   H         1 1      0.0000
    38 H22      1.2000  -1.0447   1.7767   H         1 1      0.0000
@<TRIPOS>BOND
     1     1     2   ar
     2     1     6   ar
     3     1    29    1
     4     2     3   ar
     5     2     7    1
     6     3     4   ar
     7     3    30    1
     8     4     5   ar
     9     4     8    1
    10     5     6   ar
    11     5     9    1
    12     6    10    1
    13     8    11    1
    14     8    12    1
    15     8    28    1
    16    11    13    1
    17    11    26    1
    18    11    27    1
    19    13    14    1
    20    14    15    1
    21    14    16    1
    22    14    31    1
    23    16    17    1
    24    16    20    2
    25    17    18    1
    26    17    19    1
    27    17    32    1
    28    20    21    1
    29    20    22    1
    30    22    23    1
    31    22    24    1
    32    22    25    1
    33    32    33    1
    34    32    34    1
    35    32    35    1
    36    13    36    1
    37    36    37    1
    38    13    38    1
@<TRIPOS>SUBSTRUCTURE
     1 1           1 GROUP             0 ****  ****    0  
@<TRIPOS>MOLECULE
Molecule Name_00001_00032
    38    38     1     0     0
SMALL
NO_CHARGES
****
Generated from the CSD

@<TRIPOS>ATOM
     1 C5      -4.9620  -0.5454  -0.9358   C.ar      1 1      0.0000
     2 C4      -4.8057  -0.5147   0.4546   C.ar      1 1      0.0000
     3 C3      -3.5900  -0.1068   1.0140   C.ar      1 1      0.0000
     4 C8      -2.5188   0.2740   0.1909   C.ar      1 1      0.0000
     5 C7      -2.6813   0.2325  -1.2023   C.ar      1 1      0.0000
     6 C6      -3.8962  -0.1757  -1.7636   C.ar      1 1      0.0000
     7 H4      -5.6251  -0.8144   1.1000   H         1 1      0.0000
     8 C9      -1.2243   0.7856   0.8011   C.3       1 1      0.0000
     9 H7      -1.8523   0.5060  -1.8512   H         1 1      0.0000
    10 H6      -4.0086  -0.2118  -2.8424   H         1 1      0.0000
    11 C10     -0.2871  -0.4030   1.1265   C.3       1 1      0.0000
    12 H9A     -0.7178   1.4683   0.1098   H         1 1      0.0000
    13 C11      1.0241   0.0057   1.7365   C.3       1 1      0.0000
    14 C12      1.9586   0.8488   0.8523   C.3       1 1      0.0000
    15 H12A     2.7448   1.2905   1.4808   H         1 1      0.0000
    16 C13      2.6120   0.1838  -0.3404   C.2       1 1      0.0000
    17 C14      3.5087   1.0250  -1.2013   C.3       1 1      0.0000
    18 H14B     3.0746   2.0261  -1.3003   H         1 1      0.0000
    19 H14A     3.6040   0.5966  -2.2032   H         1 1      0.0000
    20 N        2.4031  -1.0790  -0.5703   N.pl3     1 1      0.0000
    21 HN       1.7914  -1.5523   0.1406   H         1 1      0.0000
    22 C        2.9420  -1.8805  -1.7083   C.3       1 1      0.0000
    23 H1A      2.6657  -2.9213  -1.5340   H         1 1      0.0000
    24 H1C      2.4969  -1.5385  -2.6481   H         1 1      0.0000
    25 H1B      4.0303  -1.7935  -1.7554   H         1 1      0.0000
    26 H10A    -0.7905  -1.1039   1.8118   H         1 1      0.0000
    27 H10B    -0.0837  -0.9822   0.2117   H         1 1      0.0000
    28 H9B     -1.4286   1.3490   1.7182   H         1 1      0.0000
    29 H5      -5.9032  -0.8651  -1.3707   H         1 1      0.0000
    30 H3      -3.4699  -0.0991   2.0951   H         1 1      0.0000
    31 H12B     1.3796   1.7082   0.4759   H         1 1      0.0000
    32 C15      4.9288   1.1531  -0.5524   C.3       1 1      0.0000
    33 H15A     4.8756   1.6296   0.4314   H         1 1      0.0000
    34 H15B     5.4089   0.1756  -0.4459   H         1 1      0.0000
    35 H15C     5.5542   1.7757  -1.1989   H         1 1      0.0000
    36 O2       0.7547   0.7353   2.9173   O.3       1 1      0.0000
    37 H21      0.2473   0.1636   3.5512   H         1 1      0.0000
    38 H22      1.5584  -0.9004   2.0182   H         1 1      0.0000
@<TRIPOS>BOND
     1     1     2   ar
     2     1     6   ar
     3     1    29    1
     4     2     3   ar
     5     2     7    1
     6     3     4   ar
     7     3    30    1
     8     4     5   ar
     9     4     8    1
    10     5     6   ar
    11     5     9    1
    12     6    10    1
    13     8    11    1
    14     8    12    1
    15     8    28    1
    16    11    13    1
    17    11    26    1
    18    11    27    1
    19    13    14    1
    20    14    15    1
    21    14    16    1
    22    14    31    1
    23    16    17    1
    24    16    20    2
    25    17    18    1
    26    17    19    1
    27    17    32    1
    28    20    21    1
    29    20    22    1
    30    22    23    1
    31    22    24    1
    32    22    25    1
    33    32    33    1
    34    32    34    1
    35    32    35    1
    36    13    36    1
    37    36    37    1
    38    13    38    1
@<TRIPOS>SUBSTRUCTURE
     1 1           1 GROUP             0 ****  ****    0  
@<TRIPOS>MOLECULE
Molecule Name_00001_00033
    38    38     1     0     0
SMALL
NO_CHARGES
****
Generated from the CSD

@<TRIPOS>ATOM
     1 C5      -4.8022  -0.0563  -1.0987   C.ar      1 1      0.0000
     2 C4      -4.7072  -0.3966   0.2554   C.ar      1 1      0.0000
     3 C3      -3.4985  -0.2230   0.9381   C.ar      1 1      0.0000
     4 C8      -2.3732   0.2918   0.2756   C.ar      1 1      0.0000
     5 C7      -2.4749   0.6228  -1.0842   C.ar      1 1      0.0000
     6 C6      -3.6827   0.4492  -1.7689   C.ar      1 1      0.0000
     7 H4      -5.5691  -0.8025   0.7752   H         1 1      0.0000
     8 C9      -1.0828   0.5473   1.0368   C.3       1 1      0.0000
     9 H7      -1.6046   1.0037  -1.6140   H         1 1      0.0000
    10 H6      -3.7483   0.7009  -2.8225   H         1 1      0.0000
    11 C10     -0.2235  -0.7401   1.0683   C.3       1 1      0.0000
    12 H9A     -0.5114   1.3535   0.5635   H         1 1      0.0000
    13 C11      1.0783  -0.5846   1.8029   C.3       1 1      0.0000
    14 C12      2.0935   0.3998   1.1982   C.3       1 1      0.0000
    15 H12A     2.8724   0.6145   1.9435   H         1 1      0.0000
    16 C13      2.7649   0.0279  -0.1067   C.2       1 1      0.0000
    17 C14      3.7414   1.0069  -0.6907   C.3       1 1      0.0000
    18 H14B     4.4256   0.4744  -1.3606   H         1 1      0.0000
    19 H14A     4.3370   1.4814   0.0944   H         1 1      0.0000
    20 N        2.5019  -1.1169  -0.6647   N.pl3     1 1      0.0000
    21 HN       1.8353  -1.7198  -0.1209   H         1 1      0.0000
    22 C        3.0495  -1.6276  -1.9560   C.3       1 1      0.0000
    23 H1A      2.7125  -2.6590  -2.0680   H         1 1      0.0000
    24 H1C      2.6652  -1.0271  -2.7867   H         1 1      0.0000
    25 H1B      4.1418  -1.5982  -1.9460   H         1 1      0.0000
    26 H10A    -0.7926  -1.5624   1.5312   H         1 1      0.0000
    27 H10B    -0.0092  -1.0738   0.0405   H         1 1      0.0000
    28 H9B     -1.2989   0.8652   2.0627   H         1 1      0.0000
    29 H5      -5.7381  -0.1940  -1.6301   H         1 1      0.0000
    30 H3      -3.4268  -0.5030   1.9868   H         1 1      0.0000
    31 H12B     1.5770   1.3613   1.0422   H         1 1      0.0000
    32 C15      2.9883   2.1088  -1.5110   C.3       1 1      0.0000
    33 H15A     2.4244   1.6718  -2.3409   H         1 1      0.0000
    34 H15B     2.3011   2.6782  -0.8780   H         1 1      0.0000
    35 H15C     3.7263   2.8005  -1.9278   H         1 1      0.0000
    36 O2       0.7939  -0.1708   3.1247   O.3       1 1      0.0000
    37 H21      0.2299  -0.8551   3.5716   H         1 1      0.0000
    38 H22      1.5521  -1.5638   1.8539   H         1 1      0.0000
@<TRIPOS>BOND
     1     1     2   ar
     2     1     6   ar
     3     1    29    1
     4     2     3   ar
     5     2     7    1
     6     3     4   ar
     7     3    30    1
     8     4     5   ar
     9     4     8    1
    10     5     6   ar
    11     5     9    1
    12     6    10    1
    13     8    11    1
    14     8    12    1
    15     8    28    1
    16    11    13    1
    17    11    26    1
    18    11    27    1
    19    13    14    1
    20    14    15    1
    21    14    16    1
    22    14    31    1
    23    16    17    1
    24    16    20    2
    25    17    18    1
    26    17    19    1
    27    17    32    1
    28    20    21    1
    29    20    22    1
    30    22    23    1
    31    22    24    1
    32    22    25    1
    33    32    33    1
    34    32    34    1
    35    32    35    1
    36    13    36    1
    37    36    37    1
    38    13    38    1
@<TRIPOS>SUBSTRUCTURE
     1 1           1 GROUP             0 ****  ****    0  
@<TRIPOS>MOLECULE
Molecule Name_00001_00034
    38    38     1     0     0
SMALL
NO_CHARGES
****
Generated from the CSD

@<TRIPOS>ATOM
     1 C5      -5.6911   0.2771  -0.3805   C.ar      1 1      0.0000
     2 C4      -5.0045  -0.8534  -0.8379   C.ar      1 1      0.0000
     3 C3      -3.6739  -1.0647  -0.4612   C.ar      1 1      0.0000
     4 C8      -3.0159  -0.1495   0.3752   C.ar      1 1      0.0000
     5 C7      -3.7091   0.9855   0.8227   C.ar      1 1      0.0000
     6 C6      -5.0398   1.1989   0.4465   C.ar      1 1      0.0000
     7 H4      -5.5015  -1.5633  -1.4912   H         1 1      0.0000
     8 C9      -1.5945  -0.4182   0.8415   C.3       1 1      0.0000
     9 H7      -3.2042   1.7124   1.4549   H         1 1      0.0000
    10 H6      -5.5642   2.0842   0.7917   H         1 1      0.0000
    11 C10     -0.5850   0.1194  -0.2020   C.3       1 1      0.0000
    12 H9A     -1.4098   0.0648   1.8074   H         1 1      0.0000
    13 C11      0.8532  -0.1014   0.1733   C.3       1 1      0.0000
    14 C12      1.9070   0.3638  -0.8458   C.3       1 1      0.0000
    15 H12A     1.8146   1.4499  -0.9867   H         1 1      0.0000
    16 C13      3.3601   0.0349  -0.5772   C.2       1 1      0.0000
    17 C14      4.2328   1.1294  -0.0356   C.3       1 1      0.0000
    18 H14B     3.9640   2.0749  -0.5197   H         1 1      0.0000
    19 H14A     5.2874   0.9293  -0.2455   H         1 1      0.0000
    20 N        3.8006  -1.1691  -0.7956   N.pl3     1 1      0.0000
    21 HN       3.0678  -1.8434  -1.1300   H         1 1      0.0000
    22 C        5.2000  -1.6548  -0.6124   C.3       1 1      0.0000
    23 H1A      5.1950  -2.7334  -0.7757   H         1 1      0.0000
    24 H1C      5.8582  -1.1789  -1.3465   H         1 1      0.0000
    25 H1B      5.5499  -1.4393   0.4001   H         1 1      0.0000
    26 H10A    -0.7690  -0.3501  -1.1818   H         1 1      0.0000
    27 H10B    -0.7457   1.1980  -0.3588   H         1 1      0.0000
    28 H9B     -1.4336  -1.4926   0.9828   H         1 1      0.0000
    29 H5      -6.7220   0.4438  -0.6750   H         1 1      0.0000
    30 H3      -3.1410  -1.9377  -0.8317   H         1 1      0.0000
    31 H12B     1.6443  -0.0728  -1.8235   H         1 1      0.0000
    32 C15      4.0286   1.2786   1.5104   C.3       1 1      0.0000
    33 H15A     3.1153   1.8364   1.7395   H         1 1      0.0000
    34 H15B     3.9793   0.3027   2.0028   H         1 1      0.0000
    35 H15C     4.8775   1.8309   1.9240   H         1 1      0.0000
    36 O2       1.0982   0.5625   1.3975   O.3       1 1      0.0000
    37 H21      0.6071   0.1022   2.1277   H         1 1      0.0000
    38 H22      0.9956  -1.1685   0.3376   H         1 1      0.0000
@<TRIPOS>BOND
     1     1     2   ar
     2     1     6   ar
     3     1    29    1
     4     2     3   ar
     5     2     7    1
     6     3     4   ar
     7     3    30    1
     8     4     5   ar
     9     4     8    1
    10     5     6   ar
    11     5     9    1
    12     6    10    1
    13     8    11    1
    14     8    12    1
    15     8    28    1
    16    11    13    1
    17    11    26    1
    18    11    27    1
    19    13    14    1
    20    14    15    1
    21    14    16    1
    22    14    31    1
    23    16    17    1
    24    16    20    2
    25    17    18    1
    26    17    19    1
    27    17    32    1
    28    20    21    1
    29    20    22    1
    30    22    23    1
    31    22    24    1
    32    22    25    1
    33    32    33    1
    34    32    34    1
    35    32    35    1
    36    13    36    1
    37    36    37    1
    38    13    38    1
@<TRIPOS>SUBSTRUCTURE
     1 1           1 GROUP             0 ****  ****    0  
@<TRIPOS>MOLECULE
Molecule Name_00001_00035
    38    38     1     0     0
SMALL
NO_CHARGES
****
Generated from the CSD

@<TRIPOS>ATOM
     1 C5      -5.6588   0.5769   0.4727   C.ar      1 1      0.0000
     2 C4      -5.4827  -0.2142  -0.6683   C.ar      1 1      0.0000
     3 C3      -4.1941  -0.5611  -1.0879   C.ar      1 1      0.0000
     4 C8      -3.0691  -0.1216  -0.3729   C.ar      1 1      0.0000
     5 C7      -3.2543   0.6780   0.7653   C.ar      1 1      0.0000
     6 C6      -4.5424   1.0266   1.1862   C.ar      1 1      0.0000
     7 H4      -6.3455  -0.5530  -1.2327   H         1 1      0.0000
     8 C9      -1.6744  -0.5596  -0.7886   C.3       1 1      0.0000
     9 H7      -2.3900   1.0416   1.3165   H         1 1      0.0000
    10 H6      -4.6741   1.6521   2.0632   H         1 1      0.0000
    11 C10     -0.6199   0.0651   0.1573   C.3       1 1      0.0000
    12 H9A     -1.5895  -1.6515  -0.7561   H         1 1      0.0000
    13 C11      0.7959  -0.3125  -0.1763   C.3       1 1      0.0000
    14 C12      1.8967   0.3165   0.6945   C.3       1 1      0.0000
    15 H12A     1.7560  -0.0033   1.7366   H         1 1      0.0000
    16 C13      3.3411   0.0791   0.3085   C.2       1 1      0.0000
    17 C14      3.8744   0.8215  -0.8820   C.3       1 1      0.0000
    18 H14B     3.0992   0.8634  -1.6551   H         1 1      0.0000
    19 H14A     4.7456   0.3118  -1.3032   H         1 1      0.0000
    20 N        4.0747  -0.7272   1.0178   N.pl3     1 1      0.0000
    21 HN       3.5830  -1.1407   1.8489   H         1 1      0.0000
    22 C        5.4992  -1.0941   0.7644   C.3       1 1      0.0000
    23 H1A      5.8360  -1.6968   1.6090   H         1 1      0.0000
    24 H1C      5.5738  -1.6830  -0.1554   H         1 1      0.0000
    25 H1B      6.1169  -0.1962   0.6859   H         1 1      0.0000
    26 H10A    -0.7036   1.1638   0.1428   H         1 1      0.0000
    27 H10B    -0.8267  -0.2312   1.1980   H         1 1      0.0000
    28 H9B     -1.4664  -0.2511  -1.8190   H         1 1      0.0000
    29 H5      -6.6577   0.8496   0.7969   H         1 1      0.0000
    30 H3      -4.0631  -1.1641  -1.9838   H         1 1      0.0000
    31 H12B     1.7326   1.4066   0.7074   H         1 1      0.0000
    32 C15      4.2689   2.2844  -0.4838   C.3       1 1      0.0000
    33 H15A     3.4050   2.8417  -0.1084   H         1 1      0.0000
    34 H15B     5.0533   2.2929   0.2790   H         1 1      0.0000
    35 H15C     4.6463   2.7993  -1.3722   H         1 1      0.0000
    36 O2       0.9114  -1.7190  -0.0880   O.3       1 1      0.0000
    37 H21      0.3779  -2.1410  -0.8114   H         1 1      0.0000
    38 H22      0.9834  -0.0262  -1.2101   H         1 1      0.0000
@<TRIPOS>BOND
     1     1     2   ar
     2     1     6   ar
     3     1    29    1
     4     2     3   ar
     5     2     7    1
     6     3     4   ar
     7     3    30    1
     8     4     5   ar
     9     4     8    1
    10     5     6   ar
    11     5     9    1
    12     6    10    1
    13     8    11    1
    14     8    12    1
    15     8    28    1
    16    11    13    1
    17    11    26    1
    18    11    27    1
    19    13    14    1
    20    14    15    1
    21    14    16    1
    22    14    31    1
    23    16    17    1
    24    16    20    2
    25    17    18    1
    26    17    19    1
    27    17    32    1
    28    20    21    1
    29    20    22    1
    30    22    23    1
    31    22    24    1
    32    22    25    1
    33    32    33    1
    34    32    34    1
    35    32    35    1
    36    13    36    1
    37    36    37    1
    38    13    38    1
@<TRIPOS>SUBSTRUCTURE
     1 1           1 GROUP             0 ****  ****    0  
@<TRIPOS>MOLECULE
Molecule Name_00001_00036
    38    38     1     0     0
SMALL
NO_CHARGES
****
Generated from the CSD

@<TRIPOS>ATOM
     1 C5      -5.6538   0.3594   0.4728   C.ar      1 1      0.0000
     2 C4      -5.3945  -0.0399  -0.8432   C.ar      1 1      0.0000
     3 C3      -4.0750  -0.2033  -1.2784   C.ar      1 1      0.0000
     4 C8      -3.0020   0.0305  -0.4044   C.ar      1 1      0.0000
     5 C7      -3.2707   0.4384   0.9111   C.ar      1 1      0.0000
     6 C6      -4.5896   0.6031   1.3481   C.ar      1 1      0.0000
     7 H4      -6.2166  -0.2158  -1.5294   H         1 1      0.0000
     8 C9      -1.5727  -0.2176  -0.8578   C.3       1 1      0.0000
     9 H7      -2.4475   0.6421   1.5923   H         1 1      0.0000
    10 H6      -4.7861   0.9267   2.3652   H         1 1      0.0000
    11 C10     -0.5881   0.1199   0.2882   C.3       1 1      0.0000
    12 H9A     -1.4403  -1.2643  -1.1535   H         1 1      0.0000
    13 C11      0.8560  -0.0951  -0.0676   C.3       1 1      0.0000
    14 C12      1.8898   0.2710   1.0107   C.3       1 1      0.0000
    15 H12A     1.7200  -0.3558   1.8976   H         1 1      0.0000
    16 C13      3.3584   0.2063   0.6491   C.2       1 1      0.0000
    17 C14      3.9072   1.2923  -0.2297   C.3       1 1      0.0000
    18 H14B     4.9903   1.3622  -0.0791   H         1 1      0.0000
    19 H14A     3.4669   2.2609   0.0236   H         1 1      0.0000
    20 N        4.0971  -0.7555   1.1186   N.pl3     1 1      0.0000
    21 HN       3.5901  -1.4176   1.7574   H         1 1      0.0000
    22 C        5.5461  -0.9846   0.8428   C.3       1 1      0.0000
    23 H1A      5.8739  -1.8059   1.4815   H         1 1      0.0000
    24 H1C      5.6857  -1.2620  -0.2070   H         1 1      0.0000
    25 H1B      6.1255  -0.0874   1.0736   H         1 1      0.0000
    26 H10A    -0.7206   1.1676   0.6033   H         1 1      0.0000
    27 H10B    -0.8248  -0.4860   1.1774   H         1 1      0.0000
    28 H9B     -1.3357   0.3968  -1.7334   H         1 1      0.0000
    29 H5      -6.6767   0.4900   0.8104   H         1 1      0.0000
    30 H3      -3.8795  -0.4996  -2.3067   H         1 1      0.0000
    31 H12B     1.6764   1.2997   1.3449   H         1 1      0.0000
    32 C15      3.6274   0.9712  -1.7372   C.3       1 1      0.0000
    33 H15A     3.7904  -0.0888  -1.9555   H         1 1      0.0000
    34 H15B     2.6039   1.2365  -2.0188   H         1 1      0.0000
    35 H15C     4.3170   1.5555  -2.3535   H         1 1      0.0000
    36 O2       1.0309  -1.4573  -0.4041   O.3       1 1      0.0000
    37 H21      0.6816  -1.6196  -1.3194   H         1 1      0.0000
    38 H22      1.0736   0.4986  -0.9542   H         1 1      0.0000
@<TRIPOS>BOND
     1     1     2   ar
     2     1     6   ar
     3     1    29    1
     4     2     3   ar
     5     2     7    1
     6     3     4   ar
     7     3    30    1
     8     4     5   ar
     9     4     8    1
    10     5     6   ar
    11     5     9    1
    12     6    10    1
    13     8    11    1
    14     8    12    1
    15     8    28    1
    16    11    13    1
    17    11    26    1
    18    11    27    1
    19    13    14    1
    20    14    15    1
    21    14    16    1
    22    14    31    1
    23    16    17    1
    24    16    20    2
    25    17    18    1
    26    17    19    1
    27    17    32    1
    28    20    21    1
    29    20    22    1
    30    22    23    1
    31    22    24    1
    32    22    25    1
    33    32    33    1
    34    32    34    1
    35    32    35    1
    36    13    36    1
    37    36    37    1
    38    13    38    1
@<TRIPOS>SUBSTRUCTURE
     1 1           1 GROUP             0 ****  ****    0  
@<TRIPOS>MOLECULE
Molecule Name_00001_00037
    38    38     1     0     0
SMALL
NO_CHARGES
****
Generated from the CSD

@<TRIPOS>ATOM
     1 C5      -5.6793   0.1882  -0.5535   C.ar      1 1      0.0000
     2 C4      -5.4939  -0.0530   0.8126   C.ar      1 1      0.0000
     3 C3      -4.2014  -0.1877   1.3309   C.ar      1 1      0.0000
     4 C8      -3.0820  -0.0833   0.4906   C.ar      1 1      0.0000
     5 C7      -3.2772   0.1505  -0.8792   C.ar      1 1      0.0000
     6 C6      -4.5691   0.2849  -1.3996   C.ar      1 1      0.0000
     7 H4      -6.3528  -0.1431   1.4697   H         1 1      0.0000
     8 C9      -1.6779  -0.1577   1.0675   C.3       1 1      0.0000
     9 H7      -2.4188   0.2135  -1.5442   H         1 1      0.0000
    10 H6      -4.7091   0.4575  -2.4618   H         1 1      0.0000
    11 C10     -0.6324  -0.0201  -0.0660   C.3       1 1      0.0000
    12 H9A     -1.5227   0.6393   1.8031   H         1 1      0.0000
    13 C11      0.7918  -0.0820   0.4094   C.3       1 1      0.0000
    14 C12      1.8805  -0.0031  -0.6741   C.3       1 1      0.0000
    15 H12A     1.8099   0.9684  -1.1832   H         1 1      0.0000
    16 C13      3.3201  -0.2282  -0.2634   C.2       1 1      0.0000
    17 C14      4.0022   0.8630   0.5092   C.3       1 1      0.0000
    18 H14B     4.8409   0.4351   1.0696   H         1 1      0.0000
    19 H14A     3.3158   1.3232   1.2257   H         1 1      0.0000
    20 N        3.9096  -1.3479  -0.5636   N.pl3     1 1      0.0000
    21 HN       3.2967  -2.0381  -1.0651   H         1 1      0.0000
    22 C        5.3229  -1.7217  -0.2622   C.3       1 1      0.0000
    23 H1A      5.4526  -2.7659  -0.5501   H         1 1      0.0000
    24 H1C      6.0058  -1.0960  -0.8458   H         1 1      0.0000
    25 H1B      5.5291  -1.6076   0.8048   H         1 1      0.0000
    26 H10A    -0.7864  -0.8095  -0.8194   H         1 1      0.0000
    27 H10B    -0.7828   0.9305  -0.6022   H         1 1      0.0000
    28 H9B     -1.5267  -1.1099   1.5877   H         1 1      0.0000
    29 H5      -6.6814   0.2891  -0.9571   H         1 1      0.0000
    30 H3      -4.0642  -0.3896   2.3909   H         1 1      0.0000
    31 H12B     1.6373  -0.7484  -1.4493   H         1 1      0.0000
    32 C15      4.5532   1.9607  -0.4632   C.3       1 1      0.0000
    33 H15A     5.2864   1.5435  -1.1603   H         1 1      0.0000
    34 H15B     3.7466   2.4277  -1.0365   H         1 1      0.0000
    35 H15C     5.0489   2.7357   0.1287   H         1 1      0.0000
    36 O2       0.9997   0.9765   1.3236   O.3       1 1      0.0000
    37 H21      0.4685   0.8124   2.1464   H         1 1      0.0000
    38 H22      0.9238  -1.0193   0.9480   H         1 1      0.0000
@<TRIPOS>BOND
     1     1     2   ar
     2     1     6   ar
     3     1    29    1
     4     2     3   ar
     5     2     7    1
     6     3     4   ar
     7     3    30    1
     8     4     5   ar
     9     4     8    1
    10     5     6   ar
    11     5     9    1
    12     6    10    1
    13     8    11    1
    14     8    12    1
    15     8    28    1
    16    11    13    1
    17    11    26    1
    18    11    27    1
    19    13    14    1
    20    14    15    1
    21    14    16    1
    22    14    31    1
    23    16    17    1
    24    16    20    2
    25    17    18    1
    26    17    19    1
    27    17    32    1
    28    20    21    1
    29    20    22    1
    30    22    23    1
    31    22    24    1
    32    22    25    1
    33    32    33    1
    34    32    34    1
    35    32    35    1
    36    13    36    1
    37    36    37    1
    38    13    38    1
@<TRIPOS>SUBSTRUCTURE
     1 1           1 GROUP             0 ****  ****    0  
@<TRIPOS>MOLECULE
Molecule Name_00001_00038
    38    38     1     0     0
SMALL
NO_CHARGES
****
Generated from the CSD

@<TRIPOS>ATOM
     1 C5      -5.6078   0.5365   0.2403   C.ar      1 1      0.0000
     2 C4      -5.1436  -0.4662  -0.6186   C.ar      1 1      0.0000
     3 C3      -3.7853  -0.8004  -0.6356   C.ar      1 1      0.0000
     4 C8      -2.8774  -0.1369   0.2044   C.ar      1 1      0.0000
     5 C7      -3.3499   0.8727   1.0566   C.ar      1 1      0.0000
     6 C6      -4.7080   1.2089   1.0746   C.ar      1 1      0.0000
     7 H4      -5.8359  -0.9802  -1.2777   H         1 1      0.0000
     8 C9      -1.4155  -0.5513   0.2365   C.3       1 1      0.0000
     9 H7      -2.6533   1.4082   1.6979   H         1 1      0.0000
    10 H6      -5.0615   1.9969   1.7318   H         1 1      0.0000
    11 C10     -0.6292   0.1973  -0.8673   C.3       1 1      0.0000
    12 H9A     -0.9740  -0.3250   1.2134   H         1 1      0.0000
    13 C11      0.8324  -0.1488  -0.9139   C.3       1 1      0.0000
    14 C12      1.6673   0.2332   0.3201   C.3       1 1      0.0000
    15 H12A     1.2769  -0.3025   1.1969   H         1 1      0.0000
    16 C13      3.1669   0.0342   0.2622   C.2       1 1      0.0000
    17 C14      3.9657   1.0003  -0.5633   C.3       1 1      0.0000
    18 H14B     3.4079   1.2391  -1.4756   H         1 1      0.0000
    19 H14A     4.9249   0.5644  -0.8571   H         1 1      0.0000
    20 N        3.7161  -0.9342   0.9344   N.pl3     1 1      0.0000
    21 HN       3.0406  -1.5021   1.5042   H         1 1      0.0000
    22 C        5.1658  -1.2878   0.9679   C.3       1 1      0.0000
    23 H1A      5.2929  -2.0732   1.7142   H         1 1      0.0000
    24 H1C      5.4802  -1.6624  -0.0115   H         1 1      0.0000
    25 H1B      5.7651  -0.4175   1.2464   H         1 1      0.0000
    26 H10A    -1.0720  -0.0125  -1.8544   H         1 1      0.0000
    27 H10B    -0.7283   1.2855  -0.7266   H         1 1      0.0000
    28 H9B     -1.3193  -1.6316   0.0821   H         1 1      0.0000
    29 H5      -6.6605   0.7990   0.2516   H         1 1      0.0000
    30 H3      -3.4282  -1.5705  -1.3160   H         1 1      0.0000
    31 H12B     1.4830   1.2991   0.5333   H         1 1      0.0000
    32 C15      4.2181   2.3247   0.2346   C.3       1 1      0.0000
    33 H15A     3.2766   2.8168   0.4975   H         1 1      0.0000
    34 H15B     4.7864   2.1370   1.1506   H         1 1      0.0000
    35 H15C     4.7951   3.0082  -0.3952   H         1 1      0.0000
    36 O2       0.9509  -1.5436  -1.1139   O.3       1 1      0.0000
    37 H21      0.5139  -1.7935  -1.9698   H         1 1      0.0000
    38 H22      1.2666   0.3507  -1.7787   H         1 1      0.0000
@<TRIPOS>BOND
     1     1     2   ar
     2     1     6   ar
     3     1    29    1
     4     2     3   ar
     5     2     7    1
     6     3     4   ar
     7     3    30    1
     8     4     5   ar
     9     4     8    1
    10     5     6   ar
    11     5     9    1
    12     6    10    1
    13     8    11    1
    14     8    12    1
    15     8    28    1
    16    11    13    1
    17    11    26    1
    18    11    27    1
    19    13    14    1
    20    14    15    1
    21    14    16    1
    22    14    31    1
    23    16    17    1
    24    16    20    2
    25    17    18    1
    26    17    19    1
    27    17    32    1
    28    20    21    1
    29    20    22    1
    30    22    23    1
    31    22    24    1
    32    22    25    1
    33    32    33    1
    34    32    34    1
    35    32    35    1
    36    13    36    1
    37    36    37    1
    38    13    38    1
@<TRIPOS>SUBSTRUCTURE
     1 1           1 GROUP             0 ****  ****    0  
@<TRIPOS>MOLECULE
Molecule Name_00001_00039
    38    38     1     0     0
SMALL
NO_CHARGES
****
Generated from the CSD

@<TRIPOS>ATOM
     1 C5      -5.6215   0.3934   0.2299   C.ar      1 1      0.0000
     2 C4      -5.0710  -0.2144  -0.9041   C.ar      1 1      0.0000
     3 C3      -3.7017  -0.4969  -0.9523   C.ar      1 1      0.0000
     4 C8      -2.8690  -0.1750   0.1307   C.ar      1 1      0.0000
     5 C7      -3.4276   0.4417   1.2605   C.ar      1 1      0.0000
     6 C6      -4.7968   0.7256   1.3104   C.ar      1 1      0.0000
     7 H4      -5.7047  -0.4605  -1.7501   H         1 1      0.0000
     8 C9      -1.3959  -0.5484   0.1055   C.3       1 1      0.0000
     9 H7      -2.7895   0.7143   2.0982   H         1 1      0.0000
    10 H6      -5.2173   1.2101   2.1857   H         1 1      0.0000
    11 C10     -0.5794   0.5668  -0.5920   C.3       1 1      0.0000
    12 H9A     -1.0188  -0.6910   1.1243   H         1 1      0.0000
    13 C11      0.8950   0.2860  -0.6652   C.3       1 1      0.0000
    14 C12      1.6441   0.1998   0.6753   C.3       1 1      0.0000
    15 H12A     1.2269  -0.6276   1.2666   H         1 1      0.0000
    16 C13      3.1512   0.0604   0.6481   C.2       1 1      0.0000
    17 C14      3.9562   1.2755   0.2896   C.3       1 1      0.0000
    18 H14B     4.9694   1.1658   0.6917   H         1 1      0.0000
    19 H14A     3.5160   2.1784   0.7222   H         1 1      0.0000
    20 N        3.6999  -1.0786   0.9530   N.pl3     1 1      0.0000
    21 HN       3.0167  -1.8274   1.2286   H         1 1      0.0000
    22 C        5.1583  -1.3962   0.9506   C.3       1 1      0.0000
    23 H1A      5.2744  -2.3992   1.3635   H         1 1      0.0000
    24 H1C      5.5413  -1.3783  -0.0748   H         1 1      0.0000
    25 H1B      5.7063  -0.6803   1.5680   H         1 1      0.0000
    26 H10A    -0.9579   0.7285  -1.6143   H         1 1      0.0000
    27 H10B    -0.7291   1.5248  -0.0689   H         1 1      0.0000
    28 H9B     -1.2487  -1.4941  -0.4276   H         1 1      0.0000
    29 H5      -6.6828   0.6163   0.2669   H         1 1      0.0000
    30 H3      -3.2772  -0.9562  -1.8424   H         1 1      0.0000
    31 H12B     1.4063   1.1089   1.2518   H         1 1      0.0000
    32 C15      4.0457   1.4338  -1.2665   C.3       1 1      0.0000
    33 H15A     4.0871   0.4600  -1.7641   H         1 1      0.0000
    34 H15B     3.1935   1.9959  -1.6604   H         1 1      0.0000
    35 H15C     4.9615   1.9801  -1.5106   H         1 1      0.0000
    36 O2       1.0794  -0.9348  -1.3545   O.3       1 1      0.0000
    37 H21      0.7009  -0.8588  -2.2694   H         1 1      0.0000
    38 H22      1.3567   1.0760  -1.2557   H         1 1      0.0000
@<TRIPOS>BOND
     1     1     2   ar
     2     1     6   ar
     3     1    29    1
     4     2     3   ar
     5     2     7    1
     6     3     4   ar
     7     3    30    1
     8     4     5   ar
     9     4     8    1
    10     5     6   ar
    11     5     9    1
    12     6    10    1
    13     8    11    1
    14     8    12    1
    15     8    28    1
    16    11    13    1
    17    11    26    1
    18    11    27    1
    19    13    14    1
    20    14    15    1
    21    14    16    1
    22    14    31    1
    23    16    17    1
    24    16    20    2
    25    17    18    1
    26    17    19    1
    27    17    32    1
    28    20    21    1
    29    20    22    1
    30    22    23    1
    31    22    24    1
    32    22    25    1
    33    32    33    1
    34    32    34    1
    35    32    35    1
    36    13    36    1
    37    36    37    1
    38    13    38    1
@<TRIPOS>SUBSTRUCTURE
     1 1           1 GROUP             0 ****  ****    0  
@<TRIPOS>MOLECULE
Molecule Name_00001_00040
    38    38     1     0     0
SMALL
NO_CHARGES
****
Generated from the CSD

@<TRIPOS>ATOM
     1 C5      -5.6221   0.0105  -0.3321   C.ar      1 1      0.0000
     2 C4      -5.1116   0.2971   0.9390   C.ar      1 1      0.0000
     3 C3      -3.7337   0.4562   1.1208   C.ar      1 1      0.0000
     4 C8      -2.8524   0.3306   0.0357   C.ar      1 1      0.0000
     5 C7      -3.3719   0.0350  -1.2338   C.ar      1 1      0.0000
     6 C6      -4.7497  -0.1252  -1.4176   C.ar      1 1      0.0000
     7 H4      -5.7837   0.3887   1.7862   H         1 1      0.0000
     8 C9      -1.3639   0.5754   0.2217   C.3       1 1      0.0000
     9 H7      -2.6976  -0.0847  -2.0790   H         1 1      0.0000
    10 H6      -5.1402  -0.3616  -2.4021   H         1 1      0.0000
    11 C10     -0.6663  -0.7292   0.6782   C.3       1 1      0.0000
    12 H9A     -0.9118   0.9200  -0.7150   H         1 1      0.0000
    13 C11      0.8146  -0.5852   0.8891   C.3       1 1      0.0000
    14 C12      1.6550  -0.2494  -0.3544   C.3       1 1      0.0000
    15 H12A     1.3433   0.7301  -0.7440   H         1 1      0.0000
    16 C13      3.1633  -0.2588  -0.2259   C.2       1 1      0.0000
    17 C14      3.8052   0.8741   0.5207   C.3       1 1      0.0000
    18 H14B     4.7895   0.5542   0.8806   H         1 1      0.0000
    19 H14A     3.2044   1.1615   1.3883   H         1 1      0.0000
    20 N        3.8485  -1.2402  -0.7345   N.pl3     1 1      0.0000
    21 HN       3.2640  -1.9862  -1.1877   H         1 1      0.0000
    22 C        5.3333  -1.3925  -0.7233   C.3       1 1      0.0000
    23 H1A      5.5632  -2.3774  -1.1320   H         1 1      0.0000
    24 H1C      5.7912  -0.6219  -1.3517   H         1 1      0.0000
    25 H1B      5.7171  -1.3208   0.2973   H         1 1      0.0000
    26 H10A    -1.1212  -1.0930   1.6136   H         1 1      0.0000
    27 H10B    -0.8399  -1.5266  -0.0619   H         1 1      0.0000
    28 H9B     -1.1941   1.3588   0.9685   H         1 1      0.0000
    29 H5      -6.6904  -0.1169  -0.4735   H         1 1      0.0000
    30 H3      -3.3416   0.6644   2.1139   H         1 1      0.0000
    31 H12B     1.3859  -0.9684  -1.1457   H         1 1      0.0000
    32 C15      3.9904   2.1141  -0.4186   C.3       1 1      0.0000
    33 H15A     4.6338   1.8755  -1.2711   H         1 1      0.0000
    34 H15B     3.0290   2.4788  -0.7928   H         1 1      0.0000
    35 H15C     4.4654   2.9176   0.1520   H         1 1      0.0000
    36 O2       1.0280   0.4262   1.8539   O.3       1 1      0.0000
    37 H21      0.5856   0.1702   2.7053   H         1 1      0.0000
    38 H22      1.1862  -1.5227   1.3002   H         1 1      0.0000
@<TRIPOS>BOND
     1     1     2   ar
     2     1     6   ar
     3     1    29    1
     4     2     3   ar
     5     2     7    1
     6     3     4   ar
     7     3    30    1
     8     4     5   ar
     9     4     8    1
    10     5     6   ar
    11     5     9    1
    12     6    10    1
    13     8    11    1
    14     8    12    1
    15     8    28    1
    16    11    13    1
    17    11    26    1
    18    11    27    1
    19    13    14    1
    20    14    15    1
    21    14    16    1
    22    14    31    1
    23    16    17    1
    24    16    20    2
    25    17    18    1
    26    17    19    1
    27    17    32    1
    28    20    21    1
    29    20    22    1
    30    22    23    1
    31    22    24    1
    32    22    25    1
    33    32    33    1
    34    32    34    1
    35    32    35    1
    36    13    36    1
    37    36    37    1
    38    13    38    1
@<TRIPOS>SUBSTRUCTURE
     1 1           1 GROUP             0 ****  ****    0  
@<TRIPOS>MOLECULE
Molecule Name_00001_00041
    38    38     1     0     0
SMALL
NO_CHARGES
****
Generated from the CSD

@<TRIPOS>ATOM
     1 C5      -5.6334   0.6855  -0.1728   C.ar      1 1      0.0000
     2 C4      -4.8893   0.8435   1.0019   C.ar      1 1      0.0000
     3 C3      -3.6139   0.2777   1.1044   C.ar      1 1      0.0000
     4 C8      -3.0695  -0.4513   0.0356   C.ar      1 1      0.0000
     5 C7      -3.8257  -0.6117  -1.1354   C.ar      1 1      0.0000
     6 C6      -5.1017  -0.0471  -1.2397   C.ar      1 1      0.0000
     7 H4      -5.3040   1.3987   1.8370   H         1 1      0.0000
     8 C9      -1.6559  -1.0029   0.1222   C.3       1 1      0.0000
     9 H7      -3.4232  -1.1913  -1.9632   H         1 1      0.0000
    10 H6      -5.6813  -0.1841  -2.1469   H         1 1      0.0000
    11 C10     -0.6408   0.1597   0.2431   C.3       1 1      0.0000
    12 H9A     -1.5548  -1.6647   0.9895   H         1 1      0.0000
    13 C11      0.7903  -0.2894   0.3348   C.3       1 1      0.0000
    14 C12      1.8432   0.6445  -0.2856   C.3       1 1      0.0000
    15 H12A     1.8157   1.6119   0.2354   H         1 1      0.0000
    16 C13      3.2793   0.1693  -0.3439   C.2       1 1      0.0000
    17 C14      4.2982   1.1033  -0.9291   C.3       1 1      0.0000
    18 H14B     3.8567   1.6239  -1.7862   H         1 1      0.0000
    19 H14A     5.1758   0.5542  -1.2817   H         1 1      0.0000
    20 N        3.5913  -1.0023   0.1265   N.pl3     1 1      0.0000
    21 HN       2.7851  -1.5276   0.5478   H         1 1      0.0000
    22 C        4.9436  -1.6343   0.1240   C.3       1 1      0.0000
    23 H1A      4.8712  -2.5617   0.6938   H         1 1      0.0000
    24 H1C      5.2464  -1.8612  -0.9033   H         1 1      0.0000
    25 H1B      5.6756  -0.9724   0.5930   H         1 1      0.0000
    26 H10A    -0.7416   0.8399  -0.6181   H         1 1      0.0000
    27 H10B    -0.8746   0.7716   1.1290   H         1 1      0.0000
    28 H9B     -1.4215  -1.5990  -0.7666   H         1 1      0.0000
    29 H5      -6.6242   1.1208  -0.2520   H         1 1      0.0000
    30 H3      -3.0463   0.3915   2.0254   H         1 1      0.0000
    31 H12B     1.5267   0.8686  -1.3176   H         1 1      0.0000
    32 C15      4.7409   2.1664   0.1330   C.3       1 1      0.0000
    33 H15A     3.8931   2.7721   0.4676   H         1 1      0.0000
    34 H15B     5.2019   1.6920   1.0047   H         1 1      0.0000
    35 H15C     5.4764   2.8339  -0.3254   H         1 1      0.0000
    36 O2       1.1102  -0.4721   1.7000   O.3       1 1      0.0000
    37 H21      0.5110  -1.1607   2.0910   H         1 1      0.0000
    38 H22      0.8692  -1.2567  -0.1592   H         1 1      0.0000
@<TRIPOS>BOND
     1     1     2   ar
     2     1     6   ar
     3     1    29    1
     4     2     3   ar
     5     2     7    1
     6     3     4   ar
     7     3    30    1
     8     4     5   ar
     9     4     8    1
    10     5     6   ar
    11     5     9    1
    12     6    10    1
    13     8    11    1
    14     8    12    1
    15     8    28    1
    16    11    13    1
    17    11    26    1
    18    11    27    1
    19    13    14    1
    20    14    15    1
    21    14    16    1
    22    14    31    1
    23    16    17    1
    24    16    20    2
    25    17    18    1
    26    17    19    1
    27    17    32    1
    28    20    21    1
    29    20    22    1
    30    22    23    1
    31    22    24    1
    32    22    25    1
    33    32    33    1
    34    32    34    1
    35    32    35    1
    36    13    36    1
    37    36    37    1
    38    13    38    1
@<TRIPOS>SUBSTRUCTURE
     1 1           1 GROUP             0 ****  ****    0  
@<TRIPOS>MOLECULE
Molecule Name_00001_00042
    38    38     1     0     0
SMALL
NO_CHARGES
****
Generated from the CSD

@<TRIPOS>ATOM
     1 C5      -5.6089   0.7200  -0.1231   C.ar      1 1      0.0000
     2 C4      -4.9369   0.5305   1.0898   C.ar      1 1      0.0000
     3 C3      -3.6572  -0.0347   1.1006   C.ar      1 1      0.0000
     4 C8      -3.0364  -0.4163  -0.0990   C.ar      1 1      0.0000
     5 C7      -3.7205  -0.2302  -1.3099   C.ar      1 1      0.0000
     6 C6      -5.0007   0.3343  -1.3228   C.ar      1 1      0.0000
     7 H4      -5.4110   0.8149   2.0236   H         1 1      0.0000
     8 C9      -1.6182  -0.9627  -0.0909   C.3       1 1      0.0000
     9 H7      -3.2584  -0.5402  -2.2446   H         1 1      0.0000
    10 H6      -5.5243   0.4663  -2.2641   H         1 1      0.0000
    11 C10     -0.6378   0.1183   0.4262   C.3       1 1      0.0000
    12 H9A     -1.5521  -1.8489   0.5499   H         1 1      0.0000
    13 C11      0.7954  -0.3315   0.4703   C.3       1 1      0.0000
    14 C12      1.8609   0.7479   0.2154   C.3       1 1      0.0000
    15 H12A     1.7822   1.5203   0.9934   H         1 1      0.0000
    16 C13      3.3083   0.3172   0.1089   C.2       1 1      0.0000
    17 C14      4.3379   1.3863  -0.1145   C.3       1 1      0.0000
    18 H14B     5.3129   1.0221   0.2280   H         1 1      0.0000
    19 H14A     4.0948   2.2887   0.4536   H         1 1      0.0000
    20 N        3.6189  -0.9393   0.2349   N.pl3     1 1      0.0000
    21 HN       2.8018  -1.5687   0.4342   H         1 1      0.0000
    22 C        4.9828  -1.5368   0.1308   C.3       1 1      0.0000
    23 H1A      4.8987  -2.5907   0.3995   H         1 1      0.0000
    24 H1C      5.3490  -1.4515  -0.8973   H         1 1      0.0000
    25 H1B      5.6719  -1.0378   0.8167   H         1 1      0.0000
    26 H10A    -0.7043   1.0203  -0.2034   H         1 1      0.0000
    27 H10B    -0.9355   0.4429   1.4361   H         1 1      0.0000
    28 H9B     -1.3200  -1.2713  -1.0989   H         1 1      0.0000
    29 H5      -6.6029   1.1548  -0.1323   H         1 1      0.0000
    30 H3      -3.1459  -0.1930   2.0476   H         1 1      0.0000
    31 H12B     1.5992   1.2629  -0.7236   H         1 1      0.0000
    32 C15      4.4385   1.7405  -1.6372   C.3       1 1      0.0000
    33 H15A     4.7346   0.8695  -2.2300   H         1 1      0.0000
    34 H15B     3.4882   2.1231  -2.0218   H         1 1      0.0000
    35 H15C     5.1998   2.5153  -1.7668   H         1 1      0.0000
    36 O2       1.0406  -0.9045   1.7395   O.3       1 1      0.0000
    37 H21      0.4355  -1.6801   1.8750   H         1 1      0.0000
    38 H22      0.9239  -1.1114  -0.2788   H         1 1      0.0000
@<TRIPOS>BOND
     1     1     2   ar
     2     1     6   ar
     3     1    29    1
     4     2     3   ar
     5     2     7    1
     6     3     4   ar
     7     3    30    1
     8     4     5   ar
     9     4     8    1
    10     5     6   ar
    11     5     9    1
    12     6    10    1
    13     8    11    1
    14     8    12    1
    15     8    28    1
    16    11    13    1
    17    11    26    1
    18    11    27    1
    19    13    14    1
    20    14    15    1
    21    14    16    1
    22    14    31    1
    23    16    17    1
    24    16    20    2
    25    17    18    1
    26    17    19    1
    27    17    32    1
    28    20    21    1
    29    20    22    1
    30    22    23    1
    31    22    24    1
    32    22    25    1
    33    32    33    1
    34    32    34    1
    35    32    35    1
    36    13    36    1
    37    36    37    1
    38    13    38    1
@<TRIPOS>SUBSTRUCTURE
     1 1           1 GROUP             0 ****  ****    0  
@<TRIPOS>MOLECULE
Molecule Name_00001_00043
    38    38     1     0     0
SMALL
NO_CHARGES
****
Generated from the CSD

@<TRIPOS>ATOM
     1 C5      -5.5851   0.4145  -0.2776   C.ar      1 1      0.0000
     2 C4      -5.0446   1.1495   0.7836   C.ar      1 1      0.0000
     3 C3      -3.6833   1.0425   1.0879   C.ar      1 1      0.0000
     4 C8      -2.8489   0.2007   0.3362   C.ar      1 1      0.0000
     5 C7      -3.4006  -0.5389  -0.7209   C.ar      1 1      0.0000
     6 C6      -4.7620  -0.4338  -1.0265   C.ar      1 1      0.0000
     7 H4      -5.6825   1.7975   1.3760   H         1 1      0.0000
     8 C9      -1.3574   0.1414   0.6224   C.3       1 1      0.0000
     9 H7      -2.7686  -1.2100  -1.2983   H         1 1      0.0000
    10 H6      -5.1801  -1.0164  -1.8410   H         1 1      0.0000
    11 C10     -0.6736  -0.8604  -0.3397   C.3       1 1      0.0000
    12 H9A     -0.9034   1.1309   0.4987   H         1 1      0.0000
    13 C11      0.8093  -0.9878  -0.1318   C.3       1 1      0.0000
    14 C12      1.6508   0.2698  -0.4071   C.3       1 1      0.0000
    15 H12A     1.3361   1.0690   0.2788   H         1 1      0.0000
    16 C13      3.1589   0.1516  -0.3492   C.2       1 1      0.0000
    17 C14      3.9643   1.3941  -0.5951   C.3       1 1      0.0000
    18 H14B     3.4894   1.9774  -1.3918   H         1 1      0.0000
    19 H14A     4.9796   1.1452  -0.9168   H         1 1      0.0000
    20 N        3.7065  -0.9945  -0.0702   N.pl3     1 1      0.0000
    21 HN       3.0200  -1.7655   0.1243   H         1 1      0.0000
    22 C        5.1673  -1.2926   0.0002   C.3       1 1      0.0000
    23 H1A      5.2745  -2.3143   0.3673   H         1 1      0.0000
    24 H1C      5.6112  -1.2163  -0.9976   H         1 1      0.0000
    25 H1B      5.6655  -0.6029   0.6858   H         1 1      0.0000
    26 H10A    -1.1306  -1.8575  -0.2335   H         1 1      0.0000
    27 H10B    -0.8577  -0.5631  -1.3844   H         1 1      0.0000
    28 H9B     -1.1773  -0.1683   1.6577   H         1 1      0.0000
    29 H5      -6.6415   0.4939  -0.5122   H         1 1      0.0000
    30 H3      -3.2719   1.6052   1.9231   H         1 1      0.0000
    31 H12B     1.3861   0.6375  -1.4122   H         1 1      0.0000
    32 C15      4.0289   2.2708   0.7016   C.3       1 1      0.0000
    33 H15A     3.0300   2.5840   1.0207   H         1 1      0.0000
    34 H15B     4.5099   1.7327   1.5240   H         1 1      0.0000
    35 H15C     4.6153   3.1692   0.4878   H         1 1      0.0000
    36 O2       1.0360  -1.3881   1.2052   O.3       1 1      0.0000
    37 H21      0.5925  -2.2614   1.3690   H         1 1      0.0000
    38 H22      1.1711  -1.7812  -0.7841   H         1 1      0.0000
@<TRIPOS>BOND
     1     1     2   ar
     2     1     6   ar
     3     1    29    1
     4     2     3   ar
     5     2     7    1
     6     3     4   ar
     7     3    30    1
     8     4     5   ar
     9     4     8    1
    10     5     6   ar
    11     5     9    1
    12     6    10    1
    13     8    11    1
    14     8    12    1
    15     8    28    1
    16    11    13    1
    17    11    26    1
    18    11    27    1
    19    13    14    1
    20    14    15    1
    21    14    16    1
    22    14    31    1
    23    16    17    1
    24    16    20    2
    25    17    18    1
    26    17    19    1
    27    17    32    1
    28    20    21    1
    29    20    22    1
    30    22    23    1
    31    22    24    1
    32    22    25    1
    33    32    33    1
    34    32    34    1
    35    32    35    1
    36    13    36    1
    37    36    37    1
    38    13    38    1
@<TRIPOS>SUBSTRUCTURE
     1 1           1 GROUP             0 ****  ****    0  
@<TRIPOS>MOLECULE
Molecule Name_00001_00044
    38    38     1     0     0
SMALL
NO_CHARGES
****
Generated from the CSD

@<TRIPOS>ATOM
     1 C5      -5.5762   0.5201  -0.3184   C.ar      1 1      0.0000
     2 C4      -5.1200   0.8536   0.9619   C.ar      1 1      0.0000
     3 C3      -3.7807   0.6409   1.3057   C.ar      1 1      0.0000
     4 C8      -2.8842   0.0931   0.3750   C.ar      1 1      0.0000
     5 C7      -3.3518  -0.2460  -0.9039   C.ar      1 1      0.0000
     6 C6      -4.6911  -0.0346  -1.2494   C.ar      1 1      0.0000
     7 H4      -5.8066   1.2706   1.6916   H         1 1      0.0000
     8 C9      -1.4146  -0.0695   0.7266   C.3       1 1      0.0000
     9 H7      -2.6717  -0.6898  -1.6276   H         1 1      0.0000
    10 H6      -5.0441  -0.3079  -2.2386   H         1 1      0.0000
    11 C10     -0.6517  -0.6966  -0.4656   C.3       1 1      0.0000
    12 H9A     -0.9693   0.9009   0.9724   H         1 1      0.0000
    13 C11      0.8157  -0.8971  -0.2110   C.3       1 1      0.0000
    14 C12      1.6535   0.3739   0.0086   C.3       1 1      0.0000
    15 H12A     1.2806   0.8998   0.8988   H         1 1      0.0000
    16 C13      3.1560   0.2320   0.1270   C.2       1 1      0.0000
    17 C14      3.9561   1.4792   0.3666   C.3       1 1      0.0000
    18 H14B     4.9137   1.2083   0.8249   H         1 1      0.0000
    19 H14A     3.4329   2.1548   1.0493   H         1 1      0.0000
    20 N        3.7019  -0.9453   0.0437   N.pl3     1 1      0.0000
    21 HN       3.0165  -1.7319  -0.0784   H         1 1      0.0000
    22 C        5.1594  -1.2606   0.1105   C.3       1 1      0.0000
    23 H1A      5.2580  -2.3469   0.1214   H         1 1      0.0000
    24 H1C      5.6680  -0.8580  -0.7714   H         1 1      0.0000
    25 H1B      5.5992  -0.8437   1.0198   H         1 1      0.0000
    26 H10A    -1.0987  -1.6683  -0.7307   H         1 1      0.0000
    27 H10B    -0.7699  -0.0654  -1.3609   H         1 1      0.0000
    28 H9B     -1.2995  -0.7092   1.6086   H         1 1      0.0000
    29 H5      -6.6156   0.6812  -0.5849   H         1 1      0.0000
    30 H3      -3.4355   0.8886   2.3071   H         1 1      0.0000
    31 H12B     1.4511   1.0587  -0.8314   H         1 1      0.0000
    32 C15      4.2357   2.2190  -0.9857   C.3       1 1      0.0000
    33 H15A     4.8073   1.5886  -1.6738   H         1 1      0.0000
    34 H15B     3.3051   2.5224  -1.4748   H         1 1      0.0000
    35 H15C     4.8246   3.1173  -0.7780   H         1 1      0.0000
    36 O2       0.9585  -1.7235   0.9274   O.3       1 1      0.0000
    37 H21      0.5191  -2.5979   0.7589   H         1 1      0.0000
    38 H22      1.2333  -1.4291  -1.0645   H         1 1      0.0000
@<TRIPOS>BOND
     1     1     2   ar
     2     1     6   ar
     3     1    29    1
     4     2     3   ar
     5     2     7    1
     6     3     4   ar
     7     3    30    1
     8     4     5   ar
     9     4     8    1
    10     5     6   ar
    11     5     9    1
    12     6    10    1
    13     8    11    1
    14     8    12    1
    15     8    28    1
    16    11    13    1
    17    11    26    1
    18    11    27    1
    19    13    14    1
    20    14    15    1
    21    14    16    1
    22    14    31    1
    23    16    17    1
    24    16    20    2
    25    17    18    1
    26    17    19    1
    27    17    32    1
    28    20    21    1
    29    20    22    1
    30    22    23    1
    31    22    24    1
    32    22    25    1
    33    32    33    1
    34    32    34    1
    35    32    35    1
    36    13    36    1
    37    36    37    1
    38    13    38    1
@<TRIPOS>SUBSTRUCTURE
     1 1           1 GROUP             0 ****  ****    0  
@<TRIPOS>MOLECULE
Molecule Name_00001_00045
    38    38     1     0     0
SMALL
NO_CHARGES
****
Generated from the CSD

@<TRIPOS>ATOM
     1 C5      -4.7187   0.6491   0.7693   C.ar      1 1      0.0000
     2 C4      -3.7823   0.1532   1.6835   C.ar      1 1      0.0000
     3 C3      -2.4461  -0.0059   1.3008   C.ar      1 1      0.0000
     4 C8      -2.0321   0.3283   0.0020   C.ar      1 1      0.0000
     5 C7      -2.9790   0.8172  -0.9108   C.ar      1 1      0.0000
     6 C6      -4.3160   0.9764  -0.5302   C.ar      1 1      0.0000
     7 H4      -4.0934  -0.1155   2.6879   H         1 1      0.0000
     8 C9      -0.5672   0.2231  -0.3890   C.3       1 1      0.0000
     9 H7      -2.6748   1.0608  -1.9264   H         1 1      0.0000
    10 H6      -5.0418   1.3477  -1.2464   H         1 1      0.0000
    11 C10     -0.2513  -1.2122  -0.8759   C.3       1 1      0.0000
    12 H9A     -0.3306   0.9369  -1.1860   H         1 1      0.0000
    13 C11      1.1740  -1.4073  -1.3103   C.3       1 1      0.0000
    14 C12      2.2373  -1.3950  -0.1991   C.3       1 1      0.0000
    15 H12A     3.1784  -1.7982  -0.5991   H         1 1      0.0000
    16 C13      2.5325  -0.0841   0.4980   C.2       1 1      0.0000
    17 C14      3.2827   0.9615  -0.2747   C.3       1 1      0.0000
    18 H14B     4.0508   0.4738  -0.8852   H         1 1      0.0000
    19 H14A     3.7813   1.6639   0.3993   H         1 1      0.0000
    20 N        2.1166   0.1079   1.7151   N.pl3     1 1      0.0000
    21 HN       1.5649  -0.6918   2.1145   H         1 1      0.0000
    22 C        2.3422   1.3211   2.5548   C.3       1 1      0.0000
    23 H1A      1.7650   1.1951   3.4719   H         1 1      0.0000
    24 H1C      3.4048   1.4095   2.8031   H         1 1      0.0000
    25 H1B      2.0041   2.2177   2.0296   H         1 1      0.0000
    26 H10A    -0.4792  -1.9394  -0.0799   H         1 1      0.0000
    27 H10B    -0.9139  -1.4784  -1.7149   H         1 1      0.0000
    28 H9B      0.0761   0.4675   0.4634   H         1 1      0.0000
    29 H5      -5.7560   0.7694   1.0640   H         1 1      0.0000
    30 H3      -1.7259  -0.4057   2.0113   H         1 1      0.0000
    31 H12B     1.9244  -2.1171   0.5730   H         1 1      0.0000
    32 C15      2.3110   1.7469  -1.2197   C.3       1 1      0.0000
    33 H15A     2.1509   1.2113  -2.1605   H         1 1      0.0000
    34 H15B     1.3418   1.9191  -0.7420   H         1 1      0.0000
    35 H15C     2.7579   2.7179  -1.4526   H         1 1      0.0000
    36 O2       1.2631  -2.6414  -1.9947   O.3       1 1      0.0000
    37 H21      0.6645  -2.6246  -2.7868   H         1 1      0.0000
    38 H22      1.4194  -0.6153  -2.0163   H         1 1      0.0000
@<TRIPOS>BOND
     1     1     2   ar
     2     1     6   ar
     3     1    29    1
     4     2     3   ar
     5     2     7    1
     6     3     4   ar
     7     3    30    1
     8     4     5   ar
     9     4     8    1
    10     5     6   ar
    11     5     9    1
    12     6    10    1
    13     8    11    1
    14     8    12    1
    15     8    28    1
    16    11    13    1
    17    11    26    1
    18    11    27    1
    19    13    14    1
    20    14    15    1
    21    14    16    1
    22    14    31    1
    23    16    17    1
    24    16    20    2
    25    17    18    1
    26    17    19    1
    27    17    32    1
    28    20    21    1
    29    20    22    1
    30    22    23    1
    31    22    24    1
    32    22    25    1
    33    32    33    1
    34    32    34    1
    35    32    35    1
    36    13    36    1
    37    36    37    1
    38    13    38    1
@<TRIPOS>SUBSTRUCTURE
     1 1           1 GROUP             0 ****  ****    0  
@<TRIPOS>MOLECULE
Molecule Name_00001_00046
    38    38     1     0     0
SMALL
NO_CHARGES
****
Generated from the CSD

@<TRIPOS>ATOM
     1 C5      -4.8934   0.6626   0.5980   C.ar      1 1      0.0000
     2 C4      -3.9155   0.5516   1.5929   C.ar      1 1      0.0000
     3 C3      -2.5784   0.3393   1.2402   C.ar      1 1      0.0000
     4 C8      -2.2050   0.2356  -0.1088   C.ar      1 1      0.0000
     5 C7      -3.1930   0.3399  -1.0997   C.ar      1 1      0.0000
     6 C6      -4.5309   0.5515  -0.7489   C.ar      1 1      0.0000
     7 H4      -4.1947   0.6227   2.6392   H         1 1      0.0000
     8 C9      -0.7427   0.0777  -0.4919   C.3       1 1      0.0000
     9 H7      -2.9195   0.2413  -2.1478   H         1 1      0.0000
    10 H6      -5.2883   0.6227  -1.5229   H         1 1      0.0000
    11 C10     -0.3512  -1.4201  -0.4784   C.3       1 1      0.0000
    12 H9A     -0.5607   0.4913  -1.4900   H         1 1      0.0000
    13 C11      1.0758  -1.6793  -0.8718   C.3       1 1      0.0000
    14 C12      2.1548  -1.2376   0.1313   C.3       1 1      0.0000
    15 H12A     3.1131  -1.6984  -0.1469   H         1 1      0.0000
    16 C13      2.3762   0.2452   0.3412   C.2       1 1      0.0000
    17 C14      3.0325   1.0147  -0.7679   C.3       1 1      0.0000
    18 H14B     2.7681   2.0739  -0.6746   H         1 1      0.0000
    19 H14A     2.6876   0.6643  -1.7449   H         1 1      0.0000
    20 N        1.9790   0.8075   1.4445   N.pl3     1 1      0.0000
    21 HN       1.4943   0.1563   2.1113   H         1 1      0.0000
    22 C        2.1414   2.2418   1.8245   C.3       1 1      0.0000
    23 H1A      1.5977   2.3956   2.7576   H         1 1      0.0000
    24 H1C      3.2012   2.4680   1.9794   H         1 1      0.0000
    25 H1B      1.7289   2.8916   1.0489   H         1 1      0.0000
    26 H10A    -0.5229  -1.8461   0.5233   H         1 1      0.0000
    27 H10B    -1.0107  -1.9867  -1.1550   H         1 1      0.0000
    28 H9B     -0.1016   0.6272   0.2062   H         1 1      0.0000
    29 H5      -5.9313   0.8235   0.8706   H         1 1      0.0000
    30 H3      -1.8251   0.2393   2.0185   H         1 1      0.0000
    31 H12B     1.9024  -1.6763   1.1107   H         1 1      0.0000
    32 C15      4.5906   0.8748  -0.6846   C.3       1 1      0.0000
    33 H15A     4.9757   1.2679   0.2614   H         1 1      0.0000
    34 H15B     4.9039  -0.1686  -0.7872   H         1 1      0.0000
    35 H15C     5.0379   1.4508  -1.4999   H         1 1      0.0000
    36 O2       1.2266  -3.0663  -1.1018   O.3       1 1      0.0000
    37 H21      0.6150  -3.3493  -1.8311   H         1 1      0.0000
    38 H22      1.2622  -1.1626  -1.8121   H         1 1      0.0000
@<TRIPOS>BOND
     1     1     2   ar
     2     1     6   ar
     3     1    29    1
     4     2     3   ar
     5     2     7    1
     6     3     4   ar
     7     3    30    1
     8     4     5   ar
     9     4     8    1
    10     5     6   ar
    11     5     9    1
    12     6    10    1
    13     8    11    1
    14     8    12    1
    15     8    28    1
    16    11    13    1
    17    11    26    1
    18    11    27    1
    19    13    14    1
    20    14    15    1
    21    14    16    1
    22    14    31    1
    23    16    17    1
    24    16    20    2
    25    17    18    1
    26    17    19    1
    27    17    32    1
    28    20    21    1
    29    20    22    1
    30    22    23    1
    31    22    24    1
    32    22    25    1
    33    32    33    1
    34    32    34    1
    35    32    35    1
    36    13    36    1
    37    36    37    1
    38    13    38    1
@<TRIPOS>SUBSTRUCTURE
     1 1           1 GROUP             0 ****  ****    0  
@<TRIPOS>MOLECULE
Molecule Name_00001_00047
    38    38     1     0     0
SMALL
NO_CHARGES
****
Generated from the CSD

@<TRIPOS>ATOM
     1 C5      -5.6807   0.5429  -0.2044   C.ar      1 1      0.0000
     2 C4      -5.1526  -0.6206  -0.7754   C.ar      1 1      0.0000
     3 C3      -3.8246  -0.9828  -0.5255   C.ar      1 1      0.0000
     4 C8      -3.0113  -0.1872   0.2964   C.ar      1 1      0.0000
     5 C7      -3.5464   0.9820   0.8583   C.ar      1 1      0.0000
     6 C6      -4.8741   1.3463   0.6090   C.ar      1 1      0.0000
     7 H4      -5.7705  -1.2388  -1.4186   H         1 1      0.0000
     8 C9      -1.5921  -0.6207   0.6247   C.3       1 1      0.0000
     9 H7      -2.9205   1.6176   1.4807   H         1 1      0.0000
    10 H6      -5.2756   2.2568   1.0421   H         1 1      0.0000
    11 C10     -0.6200  -0.1241  -0.4731   C.3       1 1      0.0000
    12 H9A     -1.2818  -0.2156   1.5944   H         1 1      0.0000
    13 C11      0.8131  -0.5094  -0.2362   C.3       1 1      0.0000
    14 C12      1.8602   0.6036  -0.4102   C.3       1 1      0.0000
    15 H12A     1.6578   1.4031   0.3164   H         1 1      0.0000
    16 C13      3.3250   0.2318  -0.3217   C.2       1 1      0.0000
    17 C14      4.3330   1.3342  -0.4683   C.3       1 1      0.0000
    18 H14B     3.9896   2.0339  -1.2385   H         1 1      0.0000
    19 H14A     5.3039   0.9382  -0.7792   H         1 1      0.0000
    20 N        3.6652  -1.0040  -0.1018   N.pl3     1 1      0.0000
    21 HN       2.8543  -1.6593   0.0264   H         1 1      0.0000
    22 C        5.0533  -1.5457  -0.0133   C.3       1 1      0.0000
    23 H1A      4.9769  -2.5904   0.2913   H         1 1      0.0000
    24 H1C      5.5388  -1.4870  -0.9928   H         1 1      0.0000
    25 H1B      5.6340  -0.9899   0.7269   H         1 1      0.0000
    26 H10A    -0.9308  -0.5127  -1.4564   H         1 1      0.0000
    27 H10B    -0.6793   0.9727  -0.5591   H         1 1      0.0000
    28 H9B     -1.5312  -1.7121   0.6974   H         1 1      0.0000
    29 H5      -6.7094   0.8268  -0.4006   H         1 1      0.0000
    30 H3      -3.4154  -1.8805  -0.9840   H         1 1      0.0000
    31 H12B     1.6958   1.0680  -1.3965   H         1 1      0.0000
    32 C15      4.4956   2.1112   0.8823   C.3       1 1      0.0000
    33 H15A     3.5515   2.5680   1.1951   H         1 1      0.0000
    34 H15B     4.8515   1.4535   1.6810   H         1 1      0.0000
    35 H15C     5.2296   2.9098   0.7405   H         1 1      0.0000
    36 O2       0.9230  -1.0188   1.0783   O.3       1 1      0.0000
    37 H21      0.6002  -1.9577   1.0974   H         1 1      0.0000
    38 H22      1.0617  -1.3130  -0.9278   H         1 1      0.0000
@<TRIPOS>BOND
     1     1     2   ar
     2     1     6   ar
     3     1    29    1
     4     2     3   ar
     5     2     7    1
     6     3     4   ar
     7     3    30    1
     8     4     5   ar
     9     4     8    1
    10     5     6   ar
    11     5     9    1
    12     6    10    1
    13     8    11    1
    14     8    12    1
    15     8    28    1
    16    11    13    1
    17    11    26    1
    18    11    27    1
    19    13    14    1
    20    14    15    1
    21    14    16    1
    22    14    31    1
    23    16    17    1
    24    16    20    2
    25    17    18    1
    26    17    19    1
    27    17    32    1
    28    20    21    1
    29    20    22    1
    30    22    23    1
    31    22    24    1
    32    22    25    1
    33    32    33    1
    34    32    34    1
    35    32    35    1
    36    13    36    1
    37    36    37    1
    38    13    38    1
@<TRIPOS>SUBSTRUCTURE
     1 1           1 GROUP             0 ****  ****    0  
@<TRIPOS>MOLECULE
Molecule Name_00001_00048
    38    38     1     0     0
SMALL
NO_CHARGES
****
Generated from the CSD

@<TRIPOS>ATOM
     1 C5      -5.6785   0.6160  -0.1859   C.ar      1 1      0.0000
     2 C4      -5.1017  -0.3010  -1.0718   C.ar      1 1      0.0000
     3 C3      -3.7875  -0.7368  -0.8715   C.ar      1 1      0.0000
     4 C8      -3.0366  -0.2611   0.2147   C.ar      1 1      0.0000
     5 C7      -3.6198   0.6644   1.0935   C.ar      1 1      0.0000
     6 C6      -4.9338   1.1019   0.8945   C.ar      1 1      0.0000
     7 H4      -5.6710  -0.6693  -1.9192   H         1 1      0.0000
     8 C9      -1.6353  -0.7906   0.4714   C.3       1 1      0.0000
     9 H7      -3.0416   1.0558   1.9276   H         1 1      0.0000
    10 H6      -5.3725   1.8241   1.5755   H         1 1      0.0000
    11 C10     -0.6031   0.0294  -0.3404   C.3       1 1      0.0000
    12 H9A     -1.3908  -0.7279   1.5376   H         1 1      0.0000
    13 C11      0.8172  -0.4247  -0.1532   C.3       1 1      0.0000
    14 C12      1.8593   0.6747   0.1124   C.3       1 1      0.0000
    15 H12A     1.6024   1.1941   1.0464   H         1 1      0.0000
    16 C13      3.3202   0.2815   0.1659   C.2       1 1      0.0000
    17 C14      4.3218   1.3624   0.4515   C.3       1 1      0.0000
    18 H14B     5.2332   0.9087   0.8565   H         1 1      0.0000
    19 H14A     3.9361   2.0675   1.1933   H         1 1      0.0000
    20 N        3.6613  -0.9611  -0.0096   N.pl3     1 1      0.0000
    21 HN       2.8520  -1.6151  -0.1540   H         1 1      0.0000
    22 C        5.0477  -1.5141  -0.0165   C.3       1 1      0.0000
    23 H1A      4.9654  -2.6002  -0.0758   H         1 1      0.0000
    24 H1C      5.5923  -1.1423  -0.8904   H         1 1      0.0000
    25 H1B      5.5745  -1.2362   0.8996   H         1 1      0.0000
    26 H10A    -0.8475  -0.0132  -1.4141   H         1 1      0.0000
    27 H10B    -0.6704   1.0944  -0.0663   H         1 1      0.0000
    28 H9B     -1.5657  -1.8462   0.1866   H         1 1      0.0000
    29 H5      -6.6965   0.9575  -0.3424   H         1 1      0.0000
    30 H3      -3.3397  -1.4385  -1.5718   H         1 1      0.0000
    31 H12B     1.7508   1.4377  -0.6760   H         1 1      0.0000
    32 C15      4.6840   2.1348  -0.8624   C.3       1 1      0.0000
    33 H15A     5.1248   1.4666  -1.6086   H         1 1      0.0000
    34 H15B     3.8038   2.6181  -1.2971   H         1 1      0.0000
    35 H15C     5.4188   2.9089  -0.6222   H         1 1      0.0000
    36 O2       0.8514  -1.3373   0.9263   O.3       1 1      0.0000
    37 H21      0.5395  -2.2278   0.6170   H         1 1      0.0000
    38 H22      1.1180  -0.9599  -1.0527   H         1 1      0.0000
@<TRIPOS>BOND
     1     1     2   ar
     2     1     6   ar
     3     1    29    1
     4     2     3   ar
     5     2     7    1
     6     3     4   ar
     7     3    30    1
     8     4     5   ar
     9     4     8    1
    10     5     6   ar
    11     5     9    1
    12     6    10    1
    13     8    11    1
    14     8    12    1
    15     8    28    1
    16    11    13    1
    17    11    26    1
    18    11    27    1
    19    13    14    1
    20    14    15    1
    21    14    16    1
    22    14    31    1
    23    16    17    1
    24    16    20    2
    25    17    18    1
    26    17    19    1
    27    17    32    1
    28    20    21    1
    29    20    22    1
    30    22    23    1
    31    22    24    1
    32    22    25    1
    33    32    33    1
    34    32    34    1
    35    32    35    1
    36    13    36    1
    37    36    37    1
    38    13    38    1
@<TRIPOS>SUBSTRUCTURE
     1 1           1 GROUP             0 ****  ****    0  
@<TRIPOS>MOLECULE
Molecule Name_00001_00049
    38    38     1     0     0
SMALL
NO_CHARGES
****
Generated from the CSD

@<TRIPOS>ATOM
     1 C5      -4.9473  -1.1897  -0.5809   C.ar      1 1      0.0000
     2 C4      -4.5808  -1.1260   0.7683   C.ar      1 1      0.0000
     3 C3      -3.4863  -0.3480   1.1608   C.ar      1 1      0.0000
     4 C8      -2.7472   0.3734   0.2103   C.ar      1 1      0.0000
     5 C7      -3.1165   0.2975  -1.1413   C.ar      1 1      0.0000
     6 C6      -4.2104  -0.4806  -1.5359   C.ar      1 1      0.0000
     7 H4      -5.1409  -1.6859   1.5102   H         1 1      0.0000
     8 C9      -1.6042   1.2746   0.6477   C.3       1 1      0.0000
     9 H7      -2.5396   0.8358  -1.8900   H         1 1      0.0000
    10 H6      -4.4825  -0.5388  -2.5848   H         1 1      0.0000
    11 C10     -0.2938   0.4562   0.7474   C.3       1 1      0.0000
    12 H9A     -1.4668   2.0940  -0.0665   H         1 1      0.0000
    13 C11      0.8978   1.2658   1.1752   C.3       1 1      0.0000
    14 C12      2.2216   0.5011   1.3438   C.3       1 1      0.0000
    15 H12A     2.1268  -0.1983   2.1865   H         1 1      0.0000
    16 C13      2.7725  -0.2524   0.1520   C.2       1 1      0.0000
    17 C14      3.4246   0.5486  -0.9370   C.3       1 1      0.0000
    18 H14B     2.8587   1.4745  -1.0890   H         1 1      0.0000
    19 H14A     3.4291  -0.0043  -1.8806   H         1 1      0.0000
    20 N        2.6898  -1.5497   0.1139   N.pl3     1 1      0.0000
    21 HN       2.2504  -1.9800   0.9656   H         1 1      0.0000
    22 C        3.1531  -2.4420  -0.9894   C.3       1 1      0.0000
    23 H1A      3.0353  -3.4712  -0.6478   H         1 1      0.0000
    24 H1C      2.5379  -2.2818  -1.8806   H         1 1      0.0000
    25 H1B      4.2039  -2.2505  -1.2198   H         1 1      0.0000
    26 H10A    -0.4235  -0.3793   1.4541   H         1 1      0.0000
    27 H10B    -0.0694  -0.0131  -0.2237   H         1 1      0.0000
    28 H9B     -1.8240   1.7287   1.6202   H         1 1      0.0000
    29 H5      -5.7937  -1.7957  -0.8868   H         1 1      0.0000
    30 H3      -3.1975  -0.3140   2.2090   H         1 1      0.0000
    31 H12B     2.9897   1.2255   1.6611   H         1 1      0.0000
    32 C15      4.8953   0.9158  -0.5414   C.3       1 1      0.0000
    33 H15A     4.9235   1.5181   0.3719   H         1 1      0.0000
    34 H15B     5.5045   0.0192  -0.3923   H         1 1      0.0000
    35 H15C     5.3391   1.5034  -1.3505   H         1 1      0.0000
    36 O2       1.0985   2.2939   0.2254   O.3       1 1      0.0000
    37 H21      0.3555   2.9500   0.2859   H         1 1      0.0000
    38 H22      0.6587   1.7340   2.1289   H         1 1      0.0000
@<TRIPOS>BOND
     1     1     2   ar
     2     1     6   ar
     3     1    29    1
     4     2     3   ar
     5     2     7    1
     6     3     4   ar
     7     3    30    1
     8     4     5   ar
     9     4     8    1
    10     5     6   ar
    11     5     9    1
    12     6    10    1
    13     8    11    1
    14     8    12    1
    15     8    28    1
    16    11    13    1
    17    11    26    1
    18    11    27    1
    19    13    14    1
    20    14    15    1
    21    14    16    1
    22    14    31    1
    23    16    17    1
    24    16    20    2
    25    17    18    1
    26    17    19    1
    27    17    32    1
    28    20    21    1
    29    20    22    1
    30    22    23    1
    31    22    24    1
    32    22    25    1
    33    32    33    1
    34    32    34    1
    35    32    35    1
    36    13    36    1
    37    36    37    1
    38    13    38    1
@<TRIPOS>SUBSTRUCTURE
     1 1           1 GROUP             0 ****  ****    0  
@<TRIPOS>MOLECULE
Molecule Name_00001_00050
    38    38     1     0     0
SMALL
NO_CHARGES
****
Generated from the CSD

@<TRIPOS>ATOM
     1 C5      -4.8218   1.4968   0.3694   C.ar      1 1      0.0000
     2 C4      -4.4340   1.1390  -0.9269   C.ar      1 1      0.0000
     3 C3      -3.3811   0.2383  -1.1194   C.ar      1 1      0.0000
     4 C8      -2.7051  -0.3136  -0.0201   C.ar      1 1      0.0000
     5 C7      -3.0949   0.0569   1.2760   C.ar      1 1      0.0000
     6 C6      -4.1474   0.9581   1.4706   C.ar      1 1      0.0000
     7 H4      -4.9450   1.5657  -1.7839   H         1 1      0.0000
     8 C9      -1.6102  -1.3465  -0.2301   C.3       1 1      0.0000
     9 H7      -2.5659  -0.3483   2.1358   H         1 1      0.0000
    10 H6      -4.4356   1.2440   2.4771   H         1 1      0.0000
    11 C10     -0.2512  -0.6391  -0.4528   C.3       1 1      0.0000
    12 H9A     -1.5361  -2.0093   0.6393   H         1 1      0.0000
    13 C11      0.8975  -1.5832  -0.6705   C.3       1 1      0.0000
    14 C12      2.2585  -0.9442  -0.9941   C.3       1 1      0.0000
    15 H12A     2.1973  -0.4461  -1.9721   H         1 1      0.0000
    16 C13      2.8517   0.0266   0.0046   C.2       1 1      0.0000
    17 C14      2.2854   1.4161   0.0452   C.3       1 1      0.0000
    18 H14B     2.4785   1.8532   1.0312   H         1 1      0.0000
    19 H14A     1.2034   1.4027  -0.1134   H         1 1      0.0000
    20 N        3.8008  -0.3668   0.8018   N.pl3     1 1      0.0000
    21 HN       4.0652  -1.3777   0.6934   H         1 1      0.0000
    22 C        4.5122   0.4611   1.8199   C.3       1 1      0.0000
    23 H1A      5.1639  -0.2063   2.3855   H         1 1      0.0000
    24 H1C      5.1179   1.2247   1.3214   H         1 1      0.0000
    25 H1B      3.7959   0.9336   2.4964   H         1 1      0.0000
    26 H10A    -0.3168   0.0405  -1.3178   H         1 1      0.0000
    27 H10B    -0.0177   0.0055   0.4096   H         1 1      0.0000
    28 H9B     -1.8382  -1.9767  -1.0968   H         1 1      0.0000
    29 H5      -5.6359   2.1982   0.5198   H         1 1      0.0000
    30 H3      -3.0747  -0.0247  -2.1295   H         1 1      0.0000
    31 H12B     2.9870  -1.7595  -1.1358   H         1 1      0.0000
    32 C15      2.9607   2.3150  -1.0458   C.3       1 1      0.0000
    33 H15A     4.0401   2.3947  -0.8839   H         1 1      0.0000
    34 H15B     2.7824   1.9238  -2.0520   H         1 1      0.0000
    35 H15C     2.5323   3.3198  -0.9857   H         1 1      0.0000
    36 O2       1.0455  -2.3755   0.4912   O.3       1 1      0.0000
    37 H21      0.2467  -2.9552   0.6006   H         1 1      0.0000
    38 H22      0.6346  -2.2447  -1.4947   H         1 1      0.0000
@<TRIPOS>BOND
     1     1     2   ar
     2     1     6   ar
     3     1    29    1
     4     2     3   ar
     5     2     7    1
     6     3     4   ar
     7     3    30    1
     8     4     5   ar
     9     4     8    1
    10     5     6   ar
    11     5     9    1
    12     6    10    1
    13     8    11    1
    14     8    12    1
    15     8    28    1
    16    11    13    1
    17    11    26    1
    18    11    27    1
    19    13    14    1
    20    14    15    1
    21    14    16    1
    22    14    31    1
    23    16    17    1
    24    16    20    2
    25    17    18    1
    26    17    19    1
    27    17    32    1
    28    20    21    1
    29    20    22    1
    30    22    23    1
    31    22    24    1
    32    22    25    1
    33    32    33    1
    34    32    34    1
    35    32    35    1
    36    13    36    1
    37    36    37    1
    38    13    38    1
@<TRIPOS>SUBSTRUCTURE
     1 1           1 GROUP             0 ****  ****    0  
@<TRIPOS>MOLECULE
Molecule Name_00001_00051
    38    38     1     0     0
SMALL
NO_CHARGES
****
Generated from the CSD

@<TRIPOS>ATOM
     1 C5      -4.7616   0.9937  -0.9383   C.ar      1 1      0.0000
     2 C4      -4.4667  -0.3650  -1.0977   C.ar      1 1      0.0000
     3 C3      -3.3807  -0.9301  -0.4206   C.ar      1 1      0.0000
     4 C8      -2.5788  -0.1443   0.4217   C.ar      1 1      0.0000
     5 C7      -2.8765   1.2189   0.5695   C.ar      1 1      0.0000
     6 C6      -3.9618   1.7861  -0.1074   C.ar      1 1      0.0000
     7 H4      -5.0758  -0.9798  -1.7525   H         1 1      0.0000
     8 C9      -1.4445  -0.7757   1.2120   C.3       1 1      0.0000
     9 H7      -2.2507   1.8429   1.2036   H         1 1      0.0000
    10 H6      -4.1785   2.8433   0.0077   H         1 1      0.0000
    11 C10     -0.1565  -0.8095   0.3537   C.3       1 1      0.0000
    12 H9A     -1.2541  -0.2083   2.1298   H         1 1      0.0000
    13 C11      1.0252  -1.4193   1.0538   C.3       1 1      0.0000
    14 C12      2.3238  -1.5302   0.2373   C.3       1 1      0.0000
    15 H12A     2.1815  -2.2690  -0.5640   H         1 1      0.0000
    16 C13      2.9016  -0.2686  -0.3678   C.2       1 1      0.0000
    17 C14      3.5886   0.6947   0.5557   C.3       1 1      0.0000
    18 H14B     4.3265   1.2719  -0.0126   H         1 1      0.0000
    19 H14A     4.1155   0.1640   1.3538   H         1 1      0.0000
    20 N        2.8109  -0.0670  -1.6494   N.pl3     1 1      0.0000
    21 HN       2.3456  -0.8467  -2.1777   H         1 1      0.0000
    22 C        3.2978   1.1264  -2.4022   C.3       1 1      0.0000
    23 H1A      3.1636   0.9189  -3.4647   H         1 1      0.0000
    24 H1C      2.7082   2.0065  -2.1261   H         1 1      0.0000
    25 H1B      4.3558   1.3037  -2.1944   H         1 1      0.0000
    26 H10A    -0.3391  -1.3672  -0.5791   H         1 1      0.0000
    27 H10B     0.1109   0.2114   0.0375   H         1 1      0.0000
    28 H9B     -1.7076  -1.7958   1.5128   H         1 1      0.0000
    29 H5      -5.6014   1.4339  -1.4659   H         1 1      0.0000
    30 H3      -3.1477  -1.9835  -0.5599   H         1 1      0.0000
    31 H12B     3.0959  -1.9667   0.8921   H         1 1      0.0000
    32 C15      2.5507   1.6848   1.1855   C.3       1 1      0.0000
    33 H15A     2.7995   2.7246   0.9517   H         1 1      0.0000
    34 H15B     1.5358   1.4767   0.8335   H         1 1      0.0000
    35 H15C     2.5694   1.5666   2.2729   H         1 1      0.0000
    36 O2       1.2951  -0.6561   2.2131   O.3       1 1      0.0000
    37 H21      1.3339  -1.2566   3.0031   H         1 1      0.0000
    38 H22      0.7440  -2.4221   1.3720   H         1 1      0.0000
@<TRIPOS>BOND
     1     1     2   ar
     2     1     6   ar
     3     1    29    1
     4     2     3   ar
     5     2     7    1
     6     3     4   ar
     7     3    30    1
     8     4     5   ar
     9     4     8    1
    10     5     6   ar
    11     5     9    1
    12     6    10    1
    13     8    11    1
    14     8    12    1
    15     8    28    1
    16    11    13    1
    17    11    26    1
    18    11    27    1
    19    13    14    1
    20    14    15    1
    21    14    16    1
    22    14    31    1
    23    16    17    1
    24    16    20    2
    25    17    18    1
    26    17    19    1
    27    17    32    1
    28    20    21    1
    29    20    22    1
    30    22    23    1
    31    22    24    1
    32    22    25    1
    33    32    33    1
    34    32    34    1
    35    32    35    1
    36    13    36    1
    37    36    37    1
    38    13    38    1
@<TRIPOS>SUBSTRUCTURE
     1 1           1 GROUP             0 ****  ****    0  
@<TRIPOS>MOLECULE
Molecule Name_00001_00052
    38    38     1     0     0
SMALL
NO_CHARGES
****
Generated from the CSD

@<TRIPOS>ATOM
     1 C5      -5.6963   0.5205  -0.2723   C.ar      1 1      0.0000
     2 C4      -4.7159   0.7221  -1.2505   C.ar      1 1      0.0000
     3 C3      -3.4052   0.2863  -1.0287   C.ar      1 1      0.0000
     4 C8      -3.0606  -0.3546   0.1716   C.ar      1 1      0.0000
     5 C7      -4.0478  -0.5454   1.1503   C.ar      1 1      0.0000
     6 C6      -5.3592  -0.1096   0.9306   C.ar      1 1      0.0000
     7 H4      -4.9700   1.2233  -2.1789   H         1 1      0.0000
     8 C9      -1.6542  -0.8915   0.3803   C.3       1 1      0.0000
     9 H7      -3.7889  -1.0227   2.0928   H         1 1      0.0000
    10 H6      -6.1131  -0.2550   1.6975   H         1 1      0.0000
    11 C10     -0.6214   0.2487   0.2062   C.3       1 1      0.0000
    12 H9A     -1.5530  -1.3228   1.3824   H         1 1      0.0000
    13 C11      0.8041  -0.1878   0.3947   C.3       1 1      0.0000
    14 C12      1.8633   0.5487  -0.4425   C.3       1 1      0.0000
    15 H12A     1.8553   1.6145  -0.1737   H         1 1      0.0000
    16 C13      3.2918   0.0502  -0.3931   C.2       1 1      0.0000
    17 C14      4.3174   0.7962  -1.1961   C.3       1 1      0.0000
    18 H14B     3.8741   1.0987  -2.1513   H         1 1      0.0000
    19 H14A     5.1833   0.1632  -1.4099   H         1 1      0.0000
    20 N        3.5923  -0.9759   0.3472   N.pl3     1 1      0.0000
    21 HN       2.7833  -1.3691   0.8898   H         1 1      0.0000
    22 C        4.9353  -1.6114   0.4897   C.3       1 1      0.0000
    23 H1A      4.8561  -2.3702   1.2694   H         1 1      0.0000
    24 H1C      5.2237  -2.0874  -0.4531   H         1 1      0.0000
    25 H1B      5.6817  -0.8671   0.7775   H         1 1      0.0000
    26 H10A    -0.7219   0.6993  -0.7944   H         1 1      0.0000
    27 H10B    -0.8368   1.0622   0.9172   H         1 1      0.0000
    28 H9B     -1.4379  -1.6904  -0.3375   H         1 1      0.0000
    29 H5      -6.7123   0.8614  -0.4418   H         1 1      0.0000
    30 H3      -2.6443   0.4589  -1.7867   H         1 1      0.0000
    31 H12B     1.5388   0.5191  -1.4958   H         1 1      0.0000
    32 C15      4.7867   2.0791  -0.4291   C.3       1 1      0.0000
    33 H15A     3.9512   2.7620  -0.2468   H         1 1      0.0000
    34 H15B     5.2504   1.8245   0.5287   H         1 1      0.0000
    35 H15C     5.5265   2.6023  -1.0420   H         1 1      0.0000
    36 O2       1.1362  -0.0368   1.7609   O.3       1 1      0.0000
    37 H21      0.5316  -0.5990   2.3126   H         1 1      0.0000
    38 H22      0.8639  -1.2477   0.1516   H         1 1      0.0000
@<TRIPOS>BOND
     1     1     2   ar
     2     1     6   ar
     3     1    29    1
     4     2     3   ar
     5     2     7    1
     6     3     4   ar
     7     3    30    1
     8     4     5   ar
     9     4     8    1
    10     5     6   ar
    11     5     9    1
    12     6    10    1
    13     8    11    1
    14     8    12    1
    15     8    28    1
    16    11    13    1
    17    11    26    1
    18    11    27    1
    19    13    14    1
    20    14    15    1
    21    14    16    1
    22    14    31    1
    23    16    17    1
    24    16    20    2
    25    17    18    1
    26    17    19    1
    27    17    32    1
    28    20    21    1
    29    20    22    1
    30    22    23    1
    31    22    24    1
    32    22    25    1
    33    32    33    1
    34    32    34    1
    35    32    35    1
    36    13    36    1
    37    36    37    1
    38    13    38    1
@<TRIPOS>SUBSTRUCTURE
     1 1           1 GROUP             0 ****  ****    0  
@<TRIPOS>MOLECULE
Molecule Name_00001_00053
    38    38     1     0     0
SMALL
NO_CHARGES
****
Generated from the CSD

@<TRIPOS>ATOM
     1 C5      -5.6670   0.5694  -0.2593   C.ar      1 1      0.0000
     2 C4      -4.6455   1.0735  -1.0724   C.ar      1 1      0.0000
     3 C3      -3.3340   0.6125  -0.9160   C.ar      1 1      0.0000
     4 C8      -3.0295  -0.3557   0.0534   C.ar      1 1      0.0000
     5 C7      -4.0582  -0.8499   0.8699   C.ar      1 1      0.0000
     6 C6      -5.3705  -0.3896   0.7155   C.ar      1 1      0.0000
     7 H4      -4.8688   1.8280  -1.8198   H         1 1      0.0000
     8 C9      -1.6184  -0.9075   0.1725   C.3       1 1      0.0000
     9 H7      -3.8317  -1.5857   1.6383   H         1 1      0.0000
    10 H6      -6.1571  -0.7726   1.3577   H         1 1      0.0000
    11 C10     -0.6167   0.2487   0.4104   C.3       1 1      0.0000
    12 H9A     -1.5539  -1.6201   1.0022   H         1 1      0.0000
    13 C11      0.8112  -0.2010   0.5416   C.3       1 1      0.0000
    14 C12      1.8864   0.7716   0.0284   C.3       1 1      0.0000
    15 H12A     1.8293   1.7058   0.6048   H         1 1      0.0000
    16 C13      3.3264   0.3050   0.0087   C.2       1 1      0.0000
    17 C14      4.3660   1.2756  -0.4711   C.3       1 1      0.0000
    18 H14B     5.3414   0.9862  -0.0644   H         1 1      0.0000
    19 H14A     4.1430   2.2897  -0.1273   H         1 1      0.0000
    20 N        3.6229  -0.8920   0.4217   N.pl3     1 1      0.0000
    21 HN       2.8010  -1.4442   0.7725   H         1 1      0.0000
    22 C        4.9774  -1.5188   0.4443   C.3       1 1      0.0000
    23 H1A      4.8840  -2.4791   0.9532   H         1 1      0.0000
    24 H1C      5.3288  -1.6823  -0.5795   H         1 1      0.0000
    25 H1B      5.6830  -0.8843   0.9860   H         1 1      0.0000
    26 H10A    -0.6813   0.9793  -0.4120   H         1 1      0.0000
    27 H10B    -0.8947   0.8052   1.3196   H         1 1      0.0000
    28 H9B     -1.3396  -1.4482  -0.7387   H         1 1      0.0000
    29 H5      -6.6839   0.9289  -0.3772   H         1 1      0.0000
    30 H3      -2.5418   1.0189  -1.5411   H         1 1      0.0000
    31 H12B     1.6169   1.0568  -1.0019   H         1 1      0.0000
    32 C15      4.4478   1.2620  -2.0355   C.3       1 1      0.0000
    33 H15A     4.7238   0.2719  -2.4113   H         1 1      0.0000
    34 H15B     3.4967   1.5591  -2.4877   H         1 1      0.0000
    35 H15C     5.2169   1.9728  -2.3519   H         1 1      0.0000
    36 O2       1.0685  -0.4650   1.9067   O.3       1 1      0.0000
    37 H21      0.4557  -1.1777   2.2272   H         1 1      0.0000
    38 H22      0.9184  -1.1365  -0.0055   H         1 1      0.0000
@<TRIPOS>BOND
     1     1     2   ar
     2     1     6   ar
     3     1    29    1
     4     2     3   ar
     5     2     7    1
     6     3     4   ar
     7     3    30    1
     8     4     5   ar
     9     4     8    1
    10     5     6   ar
    11     5     9    1
    12     6    10    1
    13     8    11    1
    14     8    12    1
    15     8    28    1
    16    11    13    1
    17    11    26    1
    18    11    27    1
    19    13    14    1
    20    14    15    1
    21    14    16    1
    22    14    31    1
    23    16    17    1
    24    16    20    2
    25    17    18    1
    26    17    19    1
    27    17    32    1
    28    20    21    1
    29    20    22    1
    30    22    23    1
    31    22    24    1
    32    22    25    1
    33    32    33    1
    34    32    34    1
    35    32    35    1
    36    13    36    1
    37    36    37    1
    38    13    38    1
@<TRIPOS>SUBSTRUCTURE
     1 1           1 GROUP             0 ****  ****    0  
@<TRIPOS>MOLECULE
Molecule Name_00001_00054
    38    38     1     0     0
SMALL
NO_CHARGES
****
Generated from the CSD

@<TRIPOS>ATOM
     1 C5      -5.6411   0.1552  -0.2130   C.ar      1 1      0.0000
     2 C4      -4.7827   0.2785  -1.3114   C.ar      1 1      0.0000
     3 C3      -3.4107   0.0525  -1.1569   C.ar      1 1      0.0000
     4 C8      -2.8827  -0.2985   0.0953   C.ar      1 1      0.0000
     5 C7      -3.7493  -0.4120   1.1931   C.ar      1 1      0.0000
     6 C6      -5.1217  -0.1857   1.0408   C.ar      1 1      0.0000
     7 H4      -5.1795   0.5568  -2.2823   H         1 1      0.0000
     8 C9      -1.4036  -0.6142   0.2450   C.3       1 1      0.0000
     9 H7      -3.3498  -0.6637   2.1730   H         1 1      0.0000
    10 H6      -5.7820  -0.2683   1.8980   H         1 1      0.0000
    11 C10     -0.6078   0.6890   0.5011   C.3       1 1      0.0000
    12 H9A     -1.2416  -1.3077   1.0776   H         1 1      0.0000
    13 C11      0.8710   0.4767   0.6630   C.3       1 1      0.0000
    14 C12      1.6431   0.0420  -0.5940   C.3       1 1      0.0000
    15 H12A     1.5515   0.8251  -1.3598   H         1 1      0.0000
    16 C13      3.1056  -0.3211  -0.4489   C.2       1 1      0.0000
    17 C14      4.1214   0.6985  -0.8751   C.3       1 1      0.0000
    18 H14B     3.7673   1.1996  -1.7828   H         1 1      0.0000
    19 H14A     5.0805   0.2243  -1.1021   H         1 1      0.0000
    20 N        3.4379  -1.4738   0.0532   N.pl3     1 1      0.0000
    21 HN       2.6233  -2.0667   0.3506   H         1 1      0.0000
    22 C        4.8219  -2.0006   0.2405   C.3       1 1      0.0000
    23 H1A      4.7417  -2.9410   0.7875   H         1 1      0.0000
    24 H1C      5.2849  -2.1850  -0.7342   H         1 1      0.0000
    25 H1B      5.4255  -1.2934   0.8145   H         1 1      0.0000
    26 H10A    -0.7729   1.4002  -0.3243   H         1 1      0.0000
    27 H10B    -0.9915   1.1921   1.4030   H         1 1      0.0000
    28 H9B     -1.0217  -1.1015  -0.6588   H         1 1      0.0000
    29 H5      -6.7048   0.3339  -0.3309   H         1 1      0.0000
    30 H3      -2.7466   0.1641  -2.0111   H         1 1      0.0000
    31 H12B     1.1257  -0.8335  -1.0199   H         1 1      0.0000
    32 C15      4.3240   1.7724   0.2473   C.3       1 1      0.0000
    33 H15A     3.5176   2.5123   0.2409   H         1 1      0.0000
    34 H15B     4.3717   1.3105   1.2381   H         1 1      0.0000
    35 H15C     5.2674   2.2955   0.0651   H         1 1      0.0000
    36 O2       1.4413   1.6800   1.1387   O.3       1 1      0.0000
    37 H21      1.0332   1.9171   2.0124   H         1 1      0.0000
    38 H22      1.0174  -0.2867   1.4257   H         1 1      0.0000
@<TRIPOS>BOND
     1     1     2   ar
     2     1     6   ar
     3     1    29    1
     4     2     3   ar
     5     2     7    1
     6     3     4   ar
     7     3    30    1
     8     4     5   ar
     9     4     8    1
    10     5     6   ar
    11     5     9    1
    12     6    10    1
    13     8    11    1
    14     8    12    1
    15     8    28    1
    16    11    13    1
    17    11    26    1
    18    11    27    1
    19    13    14    1
    20    14    15    1
    21    14    16    1
    22    14    31    1
    23    16    17    1
    24    16    20    2
    25    17    18    1
    26    17    19    1
    27    17    32    1
    28    20    21    1
    29    20    22    1
    30    22    23    1
    31    22    24    1
    32    22    25    1
    33    32    33    1
    34    32    34    1
    35    32    35    1
    36    13    36    1
    37    36    37    1
    38    13    38    1
@<TRIPOS>SUBSTRUCTURE
     1 1           1 GROUP             0 ****  ****    0  
@<TRIPOS>MOLECULE
Molecule Name_00001_00055
    38    38     1     0     0
SMALL
NO_CHARGES
****
Generated from the CSD

@<TRIPOS>ATOM
     1 C5      -4.3152   1.1589   1.1042   C.ar      1 1      0.0000
     2 C4      -3.9246   1.4189  -0.2143   C.ar      1 1      0.0000
     3 C3      -3.1157   0.5050  -0.8983   C.ar      1 1      0.0000
     4 C8      -2.6890  -0.6767  -0.2726   C.ar      1 1      0.0000
     5 C7      -3.0785  -0.9257   1.0522   C.ar      1 1      0.0000
     6 C6      -3.8869  -0.0126   1.7382   C.ar      1 1      0.0000
     7 H4      -4.2427   2.3332  -0.7047   H         1 1      0.0000
     8 C9      -1.8711  -1.7015  -1.0412   C.3       1 1      0.0000
     9 H7      -2.7379  -1.8282   1.5549   H         1 1      0.0000
    10 H6      -4.1757  -0.2111   2.7653   H         1 1      0.0000
    11 C10     -0.5881  -1.0413  -1.6023   C.3       1 1      0.0000
    12 H9A     -1.5938  -2.5377  -0.3898   H         1 1      0.0000
    13 C11      0.4391  -0.7200  -0.5536   C.3       1 1      0.0000
    14 C12      1.7782  -0.1544  -1.0559   C.3       1 1      0.0000
    15 H12A     1.5938   0.7978  -1.5732   H         1 1      0.0000
    16 C13      2.8929   0.0506  -0.0523   C.2       1 1      0.0000
    17 C14      4.1844   0.6273  -0.5548   C.3       1 1      0.0000
    18 H14B     4.4049   0.2063  -1.5421   H         1 1      0.0000
    19 H14A     5.0123   0.3746   0.1137   H         1 1      0.0000
    20 N        2.6992  -0.2497   1.1981   N.pl3     1 1      0.0000
    21 HN       1.7325  -0.5998   1.4138   H         1 1      0.0000
    22 C        3.6914  -0.1373   2.3075   C.3       1 1      0.0000
    23 H1A      3.1677  -0.3619   3.2376   H         1 1      0.0000
    24 H1C      4.4982  -0.8625   2.1601   H         1 1      0.0000
    25 H1B      4.1009   0.8748   2.3528   H         1 1      0.0000
    26 H10A    -0.1261  -1.6966  -2.3582   H         1 1      0.0000
    27 H10B    -0.8465  -0.1133  -2.1371   H         1 1      0.0000
    28 H9B     -2.4568  -2.1181  -1.8681   H         1 1      0.0000
    29 H5      -4.9394   1.8688   1.6369   H         1 1      0.0000
    30 H3      -2.8034   0.7196  -1.9179   H         1 1      0.0000
    31 H12B     2.1574  -0.8333  -1.8374   H         1 1      0.0000
    32 C15      4.0756   2.1848  -0.6836   C.3       1 1      0.0000
    33 H15A     3.2903   2.4721  -1.3896   H         1 1      0.0000
    34 H15B     3.8691   2.6521   0.2840   H         1 1      0.0000
    35 H15C     5.0278   2.5724  -1.0574   H         1 1      0.0000
    36 O2      -0.1250   0.2124   0.3475   O.3       1 1      0.0000
    37 H21     -0.3988  -0.2554   1.1795   H         1 1      0.0000
    38 H22      0.6490  -1.6342  -0.0004   H         1 1      0.0000
@<TRIPOS>BOND
     1     1     2   ar
     2     1     6   ar
     3     1    29    1
     4     2     3   ar
     5     2     7    1
     6     3     4   ar
     7     3    30    1
     8     4     5   ar
     9     4     8    1
    10     5     6   ar
    11     5     9    1
    12     6    10    1
    13     8    11    1
    14     8    12    1
    15     8    28    1
    16    11    13    1
    17    11    26    1
    18    11    27    1
    19    13    14    1
    20    14    15    1
    21    14    16    1
    22    14    31    1
    23    16    17    1
    24    16    20    2
    25    17    18    1
    26    17    19    1
    27    17    32    1
    28    20    21    1
    29    20    22    1
    30    22    23    1
    31    22    24    1
    32    22    25    1
    33    32    33    1
    34    32    34    1
    35    32    35    1
    36    13    36    1
    37    36    37    1
    38    13    38    1
@<TRIPOS>SUBSTRUCTURE
     1 1           1 GROUP             0 ****  ****    0  
@<TRIPOS>MOLECULE
Molecule Name_00001_00056
    38    38     1     0     0
SMALL
NO_CHARGES
****
Generated from the CSD

@<TRIPOS>ATOM
     1 C5      -4.4199  -0.7611   1.4176   C.ar      1 1      0.0000
     2 C4      -4.0500   0.5869   1.3509   C.ar      1 1      0.0000
     3 C3      -3.2092   1.0326   0.3254   C.ar      1 1      0.0000
     4 C8      -2.7297   0.1369  -0.6430   C.ar      1 1      0.0000
     5 C7      -3.0989  -1.2145  -0.5640   C.ar      1 1      0.0000
     6 C6      -3.9391  -1.6623   0.4613   C.ar      1 1      0.0000
     7 H4      -4.4090   1.2863   2.0990   H         1 1      0.0000
     8 C9      -1.8760   0.6366  -1.7969   C.3       1 1      0.0000
     9 H7      -2.7178  -1.9224  -1.2968   H         1 1      0.0000
    10 H6      -4.2120  -2.7112   0.5178   H         1 1      0.0000
    11 C10     -0.6254   1.3683  -1.2515   C.3       1 1      0.0000
    12 H9A     -1.5597  -0.1996  -2.4303   H         1 1      0.0000
    13 C11      0.3954   0.4525  -0.6370   C.3       1 1      0.0000
    14 C12      1.7064   1.1045  -0.1662   C.3       1 1      0.0000
    15 H12A     1.4792   1.8417   0.6168   H         1 1      0.0000
    16 C13      2.8190   0.2046   0.3278   C.2       1 1      0.0000
    17 C14      4.0820   0.8586   0.8075   C.3       1 1      0.0000
    18 H14B     4.6044   0.1750   1.4859   H         1 1      0.0000
    19 H14A     3.8622   1.7785   1.3568   H         1 1      0.0000
    20 N        2.6470  -1.0843   0.3458   N.pl3     1 1      0.0000
    21 HN       1.6972  -1.3982   0.0250   H         1 1      0.0000
    22 C        3.6419  -2.1121   0.7723   C.3       1 1      0.0000
    23 H1A      3.1346  -3.0778   0.7701   H         1 1      0.0000
    24 H1C      4.4767  -2.1381   0.0645   H         1 1      0.0000
    25 H1B      4.0096  -1.8938   1.7778   H         1 1      0.0000
    26 H10A    -0.1423   1.9427  -2.0584   H         1 1      0.0000
    27 H10B    -0.9256   2.1151  -0.4991   H         1 1      0.0000
    28 H9B     -2.4501   1.3214  -2.4307   H         1 1      0.0000
    29 H5      -5.0689  -1.1086   2.2147   H         1 1      0.0000
    30 H3      -2.9135   2.0787   0.2872   H         1 1      0.0000
    31 H12B     2.1075   1.6961  -1.0055   H         1 1      0.0000
    32 C15      5.0229   1.1860  -0.4016   C.3       1 1      0.0000
    33 H15A     5.3074   0.2780  -0.9420   H         1 1      0.0000
    34 H15B     4.5470   1.8793  -1.1016   H         1 1      0.0000
    35 H15C     5.9345   1.6542  -0.0189   H         1 1      0.0000
    36 O2      -0.1999  -0.1943   0.4705   O.3       1 1      0.0000
    37 H21     -0.4482  -1.1220   0.2179   H         1 1      0.0000
    38 H22      0.6469  -0.3094  -1.3733   H         1 1      0.0000
@<TRIPOS>BOND
     1     1     2   ar
     2     1     6   ar
     3     1    29    1
     4     2     3   ar
     5     2     7    1
     6     3     4   ar
     7     3    30    1
     8     4     5   ar
     9     4     8    1
    10     5     6   ar
    11     5     9    1
    12     6    10    1
    13     8    11    1
    14     8    12    1
    15     8    28    1
    16    11    13    1
    17    11    26    1
    18    11    27    1
    19    13    14    1
    20    14    15    1
    21    14    16    1
    22    14    31    1
    23    16    17    1
    24    16    20    2
    25    17    18    1
    26    17    19    1
    27    17    32    1
    28    20    21    1
    29    20    22    1
    30    22    23    1
    31    22    24    1
    32    22    25    1
    33    32    33    1
    34    32    34    1
    35    32    35    1
    36    13    36    1
    37    36    37    1
    38    13    38    1
@<TRIPOS>SUBSTRUCTURE
     1 1           1 GROUP             0 ****  ****    0  
@<TRIPOS>MOLECULE
Molecule Name_00001_00057
    38    38     1     0     0
SMALL
NO_CHARGES
****
Generated from the CSD

@<TRIPOS>ATOM
     1 C5      -5.6089   0.1885   0.3678   C.ar      1 1      0.0000
     2 C4      -5.0108   1.4367   0.5753   C.ar      1 1      0.0000
     3 C3      -3.6268   1.5825   0.4327   C.ar      1 1      0.0000
     4 C8      -2.8267   0.4838   0.0821   C.ar      1 1      0.0000
     5 C7      -3.4334  -0.7658  -0.1161   C.ar      1 1      0.0000
     6 C6      -4.8174  -0.9138   0.0266   C.ar      1 1      0.0000
     7 H4      -5.6193   2.2909   0.8542   H         1 1      0.0000
     8 C9      -1.3340   0.6604  -0.1430   C.3       1 1      0.0000
     9 H7      -2.8220  -1.6292  -0.3685   H         1 1      0.0000
    10 H6      -5.2755  -1.8864  -0.1211   H         1 1      0.0000
    11 C10     -0.6905  -0.6983  -0.5127   C.3       1 1      0.0000
    12 H9A     -1.1499   1.3802  -0.9483   H         1 1      0.0000
    13 C11      0.7907  -0.6238  -0.7551   C.3       1 1      0.0000
    14 C12      1.6730  -0.3382   0.4719   C.3       1 1      0.0000
    15 H12A     1.5457  -1.1501   1.2018   H         1 1      0.0000
    16 C13      3.1542  -0.1135   0.2547   C.2       1 1      0.0000
    17 C14      3.5792   1.1967  -0.3417   C.3       1 1      0.0000
    18 H14B     2.8603   1.4884  -1.1154   H         1 1      0.0000
    19 H14A     4.5645   1.1128  -0.8092   H         1 1      0.0000
    20 N        4.0048  -1.0326   0.6052   N.pl3     1 1      0.0000
    21 HN       3.5687  -1.8774   1.0521   H         1 1      0.0000
    22 C        5.4875  -0.9873   0.4387   C.3       1 1      0.0000
    23 H1A      5.8989  -1.8647   0.9395   H         1 1      0.0000
    24 H1C      5.7437  -1.0222  -0.6251   H         1 1      0.0000
    25 H1B      5.8955  -0.0812   0.8930   H         1 1      0.0000
    26 H10A    -0.8798  -1.4350   0.2847   H         1 1      0.0000
    27 H10B    -1.1736  -1.1100  -1.4132   H         1 1      0.0000
    28 H9B     -0.8541   1.0564   0.7587   H         1 1      0.0000
    29 H5      -6.6818   0.0735   0.4818   H         1 1      0.0000
    30 H3      -3.1659   2.5518   0.6096   H         1 1      0.0000
    31 H12B     1.2721   0.5588   0.9721   H         1 1      0.0000
    32 C15      3.6175   2.3123   0.7574   C.3       1 1      0.0000
    33 H15A     2.6316   2.4607   1.2088   H         1 1      0.0000
    34 H15B     4.3349   2.0703   1.5474   H         1 1      0.0000
    35 H15C     3.9233   3.2533   0.2906   H         1 1      0.0000
    36 O2       1.2081  -1.8488  -1.3249   O.3       1 1      0.0000
    37 H21      0.7292  -1.9953  -2.1823   H         1 1      0.0000
    38 H22      0.9704   0.1630  -1.4862   H         1 1      0.0000
@<TRIPOS>BOND
     1     1     2   ar
     2     1     6   ar
     3     1    29    1
     4     2     3   ar
     5     2     7    1
     6     3     4   ar
     7     3    30    1
     8     4     5   ar
     9     4     8    1
    10     5     6   ar
    11     5     9    1
    12     6    10    1
    13     8    11    1
    14     8    12    1
    15     8    28    1
    16    11    13    1
    17    11    26    1
    18    11    27    1
    19    13    14    1
    20    14    15    1
    21    14    16    1
    22    14    31    1
    23    16    17    1
    24    16    20    2
    25    17    18    1
    26    17    19    1
    27    17    32    1
    28    20    21    1
    29    20    22    1
    30    22    23    1
    31    22    24    1
    32    22    25    1
    33    32    33    1
    34    32    34    1
    35    32    35    1
    36    13    36    1
    37    36    37    1
    38    13    38    1
@<TRIPOS>SUBSTRUCTURE
     1 1           1 GROUP             0 ****  ****    0  
@<TRIPOS>MOLECULE
Molecule Name_00001_00058
    38    38     1     0     0
SMALL
NO_CHARGES
****
Generated from the CSD

@<TRIPOS>ATOM
     1 C5      -5.6248   0.0413   0.1489   C.ar      1 1      0.0000
     2 C4      -5.0827   0.9338   1.0806   C.ar      1 1      0.0000
     3 C3      -3.6969   1.1096   1.1580   C.ar      1 1      0.0000
     4 C8      -2.8393   0.3961   0.3063   C.ar      1 1      0.0000
     5 C7      -3.3907  -0.5028  -0.6193   C.ar      1 1      0.0000
     6 C6      -4.7763  -0.6805  -0.6978   C.ar      1 1      0.0000
     7 H4      -5.7364   1.4849   1.7490   H         1 1      0.0000
     8 C9      -1.3400   0.6423   0.3426   C.3       1 1      0.0000
     9 H7      -2.7357  -1.0767  -1.2712   H         1 1      0.0000
    10 H6      -5.1919  -1.3842  -1.4118   H         1 1      0.0000
    11 C10     -0.6289  -0.2705  -0.6860   C.3       1 1      0.0000
    12 H9A     -1.1176   1.6902   0.1126   H         1 1      0.0000
    13 C11      0.8634  -0.0976  -0.7233   C.3       1 1      0.0000
    14 C12      1.6410  -0.5832   0.5116   C.3       1 1      0.0000
    15 H12A     1.4838  -1.6644   0.6320   H         1 1      0.0000
    16 C13      3.1268  -0.3018   0.5810   C.2       1 1      0.0000
    17 C14      3.5554   1.1055   0.8786   C.3       1 1      0.0000
    18 H14B     4.5695   1.0913   1.2933   H         1 1      0.0000
    19 H14A     2.8942   1.5684   1.6167   H         1 1      0.0000
    20 N        3.9763  -1.2713   0.4082   N.pl3     1 1      0.0000
    21 HN       3.5338  -2.2115   0.2543   H         1 1      0.0000
    22 C        5.4652  -1.1659   0.4163   C.3       1 1      0.0000
    23 H1A      5.8643  -2.1792   0.3551   H         1 1      0.0000
    24 H1C      5.8021  -0.5892  -0.4512   H         1 1      0.0000
    25 H1B      5.8097  -0.6916   1.3384   H         1 1      0.0000
    26 H10A    -0.8554  -1.3276  -0.4725   H         1 1      0.0000
    27 H10B    -1.0297  -0.0826  -1.6949   H         1 1      0.0000
    28 H9B     -0.9420   0.4410   1.3433   H         1 1      0.0000
    29 H5      -6.6992  -0.0985   0.0906   H         1 1      0.0000
    30 H3      -3.2807   1.7939   1.8941   H         1 1      0.0000
    31 H12B     1.1761  -0.1279   1.4016   H         1 1      0.0000
    32 C15      3.5580   1.9659  -0.4305   C.3       1 1      0.0000
    33 H15A     3.8507   1.3683  -1.2993   H         1 1      0.0000
    34 H15B     2.5749   2.4072  -0.6203   H         1 1      0.0000
    35 H15C     4.2833   2.7767  -0.3151   H         1 1      0.0000
    36 O2       1.3600  -0.7821  -1.8565   O.3       1 1      0.0000
    37 H21      0.9521  -0.4018  -2.6780   H         1 1      0.0000
    38 H22      1.0737   0.9627  -0.8548   H         1 1      0.0000
@<TRIPOS>BOND
     1     1     2   ar
     2     1     6   ar
     3     1    29    1
     4     2     3   ar
     5     2     7    1
     6     3     4   ar
     7     3    30    1
     8     4     5   ar
     9     4     8    1
    10     5     6   ar
    11     5     9    1
    12     6    10    1
    13     8    11    1
    14     8    12    1
    15     8    28    1
    16    11    13    1
    17    11    26    1
    18    11    27    1
    19    13    14    1
    20    14    15    1
    21    14    16    1
    22    14    31    1
    23    16    17    1
    24    16    20    2
    25    17    18    1
    26    17    19    1
    27    17    32    1
    28    20    21    1
    29    20    22    1
    30    22    23    1
    31    22    24    1
    32    22    25    1
    33    32    33    1
    34    32    34    1
    35    32    35    1
    36    13    36    1
    37    36    37    1
    38    13    38    1
@<TRIPOS>SUBSTRUCTURE
     1 1           1 GROUP             0 ****  ****    0  
@<TRIPOS>MOLECULE
Molecule Name_00001_00059
    38    38     1     0     0
SMALL
NO_CHARGES
****
Generated from the CSD

@<TRIPOS>ATOM
     1 C5      -5.6377   0.3311  -0.1908   C.ar      1 1      0.0000
     2 C4      -5.1323  -0.6381  -1.0648   C.ar      1 1      0.0000
     3 C3      -3.7647  -0.9326  -1.0690   C.ar      1 1      0.0000
     4 C8      -2.8886  -0.2624  -0.2009   C.ar      1 1      0.0000
     5 C7      -3.4024   0.7136   0.6664   C.ar      1 1      0.0000
     6 C6      -4.7699   1.0101   0.6715   C.ar      1 1      0.0000
     7 H4      -5.7999  -1.1567  -1.7454   H         1 1      0.0000
     8 C9      -1.4159  -0.6351  -0.1562   C.3       1 1      0.0000
     9 H7      -2.7310   1.2543   1.3298   H         1 1      0.0000
    10 H6      -5.1556   1.7724   1.3407   H         1 1      0.0000
    11 C10     -0.6767   0.2524   0.8747   C.3       1 1      0.0000
    12 H9A     -1.2950  -1.6887   0.1192   H         1 1      0.0000
    13 C11      0.7920  -0.0438   0.9901   C.3       1 1      0.0000
    14 C12      1.6638   0.3282  -0.2211   C.3       1 1      0.0000
    15 H12A     1.6210   1.4159  -0.3731   H         1 1      0.0000
    16 C13      3.1155  -0.1012  -0.2200   C.2       1 1      0.0000
    17 C14      4.0574   0.6319   0.6902   C.3       1 1      0.0000
    18 H14B     4.9257  -0.0041   0.8951   H         1 1      0.0000
    19 H14A     3.5767   0.8666   1.6442   H         1 1      0.0000
    20 N        3.4971  -1.0895  -0.9743   N.pl3     1 1      0.0000
    21 HN       2.7221  -1.5386  -1.5230   H         1 1      0.0000
    22 C        4.8847  -1.6212  -1.1152   C.3       1 1      0.0000
    23 H1A      4.8295  -2.5164  -1.7360   H         1 1      0.0000
    24 H1C      5.5203  -0.8770  -1.6058   H         1 1      0.0000
    25 H1B      5.2963  -1.8790  -0.1364   H         1 1      0.0000
    26 H10A    -0.8017   1.3161   0.6153   H         1 1      0.0000
    27 H10B    -1.1377   0.1368   1.8687   H         1 1      0.0000
    28 H9B     -0.9570  -0.5055  -1.1426   H         1 1      0.0000
    29 H5      -6.6977   0.5629  -0.1894   H         1 1      0.0000
    30 H3      -3.3756  -1.6764  -1.7608   H         1 1      0.0000
    31 H12B     1.1920  -0.1030  -1.1194   H         1 1      0.0000
    32 C15      4.5509   1.9569   0.0157   C.3       1 1      0.0000
    33 H15A     5.0861   1.7537  -0.9170   H         1 1      0.0000
    34 H15B     3.7164   2.6323  -0.1958   H         1 1      0.0000
    35 H15C     5.2389   2.4627   0.6997   H         1 1      0.0000
    36 O2       1.2935   0.6383   2.1226   O.3       1 1      0.0000
    37 H21      0.8175   0.3245   2.9356   H         1 1      0.0000
    38 H22      0.9043  -1.1125   1.1669   H         1 1      0.0000
@<TRIPOS>BOND
     1     1     2   ar
     2     1     6   ar
     3     1    29    1
     4     2     3   ar
     5     2     7    1
     6     3     4   ar
     7     3    30    1
     8     4     5   ar
     9     4     8    1
    10     5     6   ar
    11     5     9    1
    12     6    10    1
    13     8    11    1
    14     8    12    1
    15     8    28    1
    16    11    13    1
    17    11    26    1
    18    11    27    1
    19    13    14    1
    20    14    15    1
    21    14    16    1
    22    14    31    1
    23    16    17    1
    24    16    20    2
    25    17    18    1
    26    17    19    1
    27    17    32    1
    28    20    21    1
    29    20    22    1
    30    22    23    1
    31    22    24    1
    32    22    25    1
    33    32    33    1
    34    32    34    1
    35    32    35    1
    36    13    36    1
    37    36    37    1
    38    13    38    1
@<TRIPOS>SUBSTRUCTURE
     1 1           1 GROUP             0 ****  ****    0  
@<TRIPOS>MOLECULE
Molecule Name_00001_00060
    38    38     1     0     0
SMALL
NO_CHARGES
****
Generated from the CSD

@<TRIPOS>ATOM
     1 C5      -3.9070   1.6358   0.3198   C.ar      1 1      0.0000
     2 C4      -3.3786   1.1584  -0.8850   C.ar      1 1      0.0000
     3 C3      -2.6223  -0.0185  -0.9005   C.ar      1 1      0.0000
     4 C8      -2.3861  -0.7297   0.2863   C.ar      1 1      0.0000
     5 C7      -2.9127  -0.2395   1.4911   C.ar      1 1      0.0000
     6 C6      -3.6688   0.9377   1.5088   C.ar      1 1      0.0000
     7 H4      -3.5488   1.7047  -1.8071   H         1 1      0.0000
     8 C9      -1.6262  -2.0455   0.2560   C.3       1 1      0.0000
     9 H7      -2.7200  -0.7706   2.4206   H         1 1      0.0000
    10 H6      -4.0647   1.3123   2.4472   H         1 1      0.0000
    11 C10     -0.1046  -1.7801   0.3615   C.3       1 1      0.0000
    12 H9A     -1.9406  -2.6893   1.0849   H         1 1      0.0000
    13 C11      0.4840  -1.1227  -0.8549   C.3       1 1      0.0000
    14 C12      1.9835  -0.7863  -0.7947   C.3       1 1      0.0000
    15 H12A     2.3394  -0.5523  -1.8080   H         1 1      0.0000
    16 C13      2.4356   0.3146   0.1409   C.2       1 1      0.0000
    17 C14      3.9037   0.6225   0.1952   C.3       1 1      0.0000
    18 H14B     4.4689  -0.3143   0.1359   H         1 1      0.0000
    19 H14A     4.1654   1.1170   1.1350   H         1 1      0.0000
    20 N        1.5562   0.9681   0.8415   N.pl3     1 1      0.0000
    21 HN       0.5620   0.6767   0.6676   H         1 1      0.0000
    22 C        1.8289   2.0563   1.8260   C.3       1 1      0.0000
    23 H1A      0.8656   2.4576   2.1438   H         1 1      0.0000
    24 H1C      2.3574   1.6491   2.6939   H         1 1      0.0000
    25 H1B      2.4218   2.8496   1.3643   H         1 1      0.0000
    26 H10A     0.1085  -1.1497   1.2399   H         1 1      0.0000
    27 H10B     0.4299  -2.7262   0.5429   H         1 1      0.0000
    28 H9B     -1.8368  -2.5891  -0.6716   H         1 1      0.0000
    29 H5      -4.4905   2.5505   0.3335   H         1 1      0.0000
    30 H3      -2.2020  -0.3767  -1.8377   H         1 1      0.0000
    31 H12B     2.5225  -1.7049  -0.5096   H         1 1      0.0000
    32 C15      4.3165   1.5375  -1.0075   C.3       1 1      0.0000
    33 H15A     4.1182   1.0486  -1.9663   H         1 1      0.0000
    34 H15B     3.7856   2.4940  -0.9822   H         1 1      0.0000
    35 H15C     5.3901   1.7374  -0.9429   H         1 1      0.0000
    36 O2       0.2646  -1.9698  -1.9656   O.3       1 1      0.0000
    37 H21     -0.7042  -1.9866  -2.1829   H         1 1      0.0000
    38 H22     -0.0597  -0.1954  -1.0295   H         1 1      0.0000
@<TRIPOS>BOND
     1     1     2   ar
     2     1     6   ar
     3     1    29    1
     4     2     3   ar
     5     2     7    1
     6     3     4   ar
     7     3    30    1
     8     4     5   ar
     9     4     8    1
    10     5     6   ar
    11     5     9    1
    12     6    10    1
    13     8    11    1
    14     8    12    1
    15     8    28    1
    16    11    13    1
    17    11    26    1
    18    11    27    1
    19    13    14    1
    20    14    15    1
    21    14    16    1
    22    14    31    1
    23    16    17    1
    24    16    20    2
    25    17    18    1
    26    17    19    1
    27    17    32    1
    28    20    21    1
    29    20    22    1
    30    22    23    1
    31    22    24    1
    32    22    25    1
    33    32    33    1
    34    32    34    1
    35    32    35    1
    36    13    36    1
    37    36    37    1
    38    13    38    1
@<TRIPOS>SUBSTRUCTURE
     1 1           1 GROUP             0 ****  ****    0  
@<TRIPOS>MOLECULE
Molecule Name_00001_00061
    38    38     1     0     0
SMALL
NO_CHARGES
****
Generated from the CSD

@<TRIPOS>ATOM
     1 C5      -4.0268   1.2986  -0.7442   C.ar      1 1      0.0000
     2 C4      -3.4972   0.1691  -1.3785   C.ar      1 1      0.0000
     3 C3      -2.6666  -0.7066  -0.6710   C.ar      1 1      0.0000
     4 C8      -2.3566  -0.4630   0.6760   C.ar      1 1      0.0000
     5 C7      -2.8852   0.6762   1.3020   C.ar      1 1      0.0000
     6 C6      -3.7156   1.5535   0.5959   C.ar      1 1      0.0000
     7 H4      -3.7244  -0.0245  -2.4219   H         1 1      0.0000
     8 C9      -1.5136  -1.4534   1.4623   C.3       1 1      0.0000
     9 H7      -2.6363   0.8869   2.3397   H         1 1      0.0000
    10 H6      -4.1126   2.4359   1.0873   H         1 1      0.0000
    11 C10     -0.0104  -1.1321   1.2779   C.3       1 1      0.0000
    12 H9A     -1.7657  -1.4109   2.5277   H         1 1      0.0000
    13 C11      0.5051  -1.4079  -0.1065   C.3       1 1      0.0000
    14 C12      1.9807  -1.0632  -0.3701   C.3       1 1      0.0000
    15 H12A     2.2964  -1.5349  -1.3113   H         1 1      0.0000
    16 C13      2.3823   0.3960  -0.4041   C.2       1 1      0.0000
    17 C14      3.8281   0.7143  -0.6516   C.3       1 1      0.0000
    18 H14B     3.9082   1.7326  -1.0480   H         1 1      0.0000
    19 H14A     4.2593   0.0295  -1.3874   H         1 1      0.0000
    20 N        1.4791   1.3181  -0.2449   N.pl3     1 1      0.0000
    21 HN       0.5021   0.9504  -0.1272   H         1 1      0.0000
    22 C        1.7037   2.7936  -0.2228   C.3       1 1      0.0000
    23 H1A      0.7242   3.2721  -0.1847   H         1 1      0.0000
    24 H1C      2.2781   3.0692   0.6675   H         1 1      0.0000
    25 H1B      2.2327   3.1131  -1.1239   H         1 1      0.0000
    26 H10A     0.1821  -0.0746   1.5208   H         1 1      0.0000
    27 H10B     0.5887  -1.7122   1.9980   H         1 1      0.0000
    28 H9B     -1.7103  -2.4772   1.1256   H         1 1      0.0000
    29 H5      -4.6681   1.9803  -1.2930   H         1 1      0.0000
    30 H3      -2.2462  -1.5749  -1.1736   H         1 1      0.0000
    31 H12B     2.5848  -1.5545   0.4104   H         1 1      0.0000
    32 C15      4.6446   0.6269   0.6825   C.3       1 1      0.0000
    33 H15A     4.2729   1.3405   1.4243   H         1 1      0.0000
    34 H15B     4.6050  -0.3796   1.1098   H         1 1      0.0000
    35 H15C     5.6897   0.8702   0.4698   H         1 1      0.0000
    36 O2       0.3150  -2.7813  -0.3841   O.3       1 1      0.0000
    37 H21     -0.6555  -2.9685  -0.4793   H         1 1      0.0000
    38 H22     -0.1016  -0.8380  -0.8086   H         1 1      0.0000
@<TRIPOS>BOND
     1     1     2   ar
     2     1     6   ar
     3     1    29    1
     4     2     3   ar
     5     2     7    1
     6     3     4   ar
     7     3    30    1
     8     4     5   ar
     9     4     8    1
    10     5     6   ar
    11     5     9    1
    12     6    10    1
    13     8    11    1
    14     8    12    1
    15     8    28    1
    16    11    13    1
    17    11    26    1
    18    11    27    1
    19    13    14    1
    20    14    15    1
    21    14    16    1
    22    14    31    1
    23    16    17    1
    24    16    20    2
    25    17    18    1
    26    17    19    1
    27    17    32    1
    28    20    21    1
    29    20    22    1
    30    22    23    1
    31    22    24    1
    32    22    25    1
    33    32    33    1
    34    32    34    1
    35    32    35    1
    36    13    36    1
    37    36    37    1
    38    13    38    1
@<TRIPOS>SUBSTRUCTURE
     1 1           1 GROUP             0 ****  ****    0  
@<TRIPOS>MOLECULE
Molecule Name_00001_00062
    38    38     1     0     0
SMALL
NO_CHARGES
****
Generated from the CSD

@<TRIPOS>ATOM
     1 C5      -4.8002   0.7782   1.1782   C.ar      1 1      0.0000
     2 C4      -5.0173  -0.3403   0.3656   C.ar      1 1      0.0000
     3 C3      -3.9613  -0.8851  -0.3728   C.ar      1 1      0.0000
     4 C8      -2.6789  -0.3185  -0.3073   C.ar      1 1      0.0000
     5 C7      -2.4718   0.8078   0.5036   C.ar      1 1      0.0000
     6 C6      -3.5268   1.3546   1.2424   C.ar      1 1      0.0000
     7 H4      -6.0067  -0.7815   0.3019   H         1 1      0.0000
     8 C9      -1.5179  -0.9552  -1.0533   C.3       1 1      0.0000
     9 H7      -1.4873   1.2683   0.5474   H         1 1      0.0000
    10 H6      -3.3576   2.2306   1.8601   H         1 1      0.0000
    11 C10     -0.2252  -0.1362  -0.8184   C.3       1 1      0.0000
    12 H9A     -1.3618  -1.9850  -0.7131   H         1 1      0.0000
    13 C11      0.9824  -0.6914  -1.5195   C.3       1 1      0.0000
    14 C12      2.2930   0.0968  -1.3559   C.3       1 1      0.0000
    15 H12A     2.1494   1.1154  -1.7430   H         1 1      0.0000
    16 C13      2.9086   0.1882   0.0241   C.2       1 1      0.0000
    17 C14      4.0860   1.1020   0.2017   C.3       1 1      0.0000
    18 H14B     4.7289   1.0345  -0.6830   H         1 1      0.0000
    19 H14A     4.6787   0.8118   1.0740   H         1 1      0.0000
    20 N        2.3975  -0.4950   1.0056   N.pl3     1 1      0.0000
    21 HN       1.5477  -1.0552   0.7458   H         1 1      0.0000
    22 C        2.8923  -0.5429   2.4130   C.3       1 1      0.0000
    23 H1A      2.1697  -1.1181   2.9934   H         1 1      0.0000
    24 H1C      3.8664  -1.0413   2.4481   H         1 1      0.0000
    25 H1B      2.9725   0.4662   2.8244   H         1 1      0.0000
    26 H10A    -0.3739   0.9056  -1.1454   H         1 1      0.0000
    27 H10B    -0.0090  -0.0770   0.2603   H         1 1      0.0000
    28 H9B     -1.7298  -0.9996  -2.1272   H         1 1      0.0000
    29 H5      -5.6193   1.2038   1.7485   H         1 1      0.0000
    30 H3      -4.1396  -1.7456  -1.0139   H         1 1      0.0000
    31 H12B     3.0435  -0.3576  -2.0235   H         1 1      0.0000
    32 C15      3.6087   2.5850   0.3662   C.3       1 1      0.0000
    33 H15A     3.0576   2.9261  -0.5156   H         1 1      0.0000
    34 H15B     2.9725   2.7042   1.2484   H         1 1      0.0000
    35 H15C     4.4881   3.2245   0.4865   H         1 1      0.0000
    36 O2       1.1975  -2.0092  -1.0543   O.3       1 1      0.0000
    37 H21      0.4615  -2.5961  -1.3706   H         1 1      0.0000
    38 H22      0.7557  -0.7454  -2.5833   H         1 1      0.0000
@<TRIPOS>BOND
     1     1     2   ar
     2     1     6   ar
     3     1    29    1
     4     2     3   ar
     5     2     7    1
     6     3     4   ar
     7     3    30    1
     8     4     5   ar
     9     4     8    1
    10     5     6   ar
    11     5     9    1
    12     6    10    1
    13     8    11    1
    14     8    12    1
    15     8    28    1
    16    11    13    1
    17    11    26    1
    18    11    27    1
    19    13    14    1
    20    14    15    1
    21    14    16    1
    22    14    31    1
    23    16    17    1
    24    16    20    2
    25    17    18    1
    26    17    19    1
    27    17    32    1
    28    20    21    1
    29    20    22    1
    30    22    23    1
    31    22    24    1
    32    22    25    1
    33    32    33    1
    34    32    34    1
    35    32    35    1
    36    13    36    1
    37    36    37    1
    38    13    38    1
@<TRIPOS>SUBSTRUCTURE
     1 1           1 GROUP             0 ****  ****    0  
@<TRIPOS>MOLECULE
Molecule Name_00001_00063
    38    38     1     0     0
SMALL
NO_CHARGES
****
Generated from the CSD

@<TRIPOS>ATOM
     1 C5      -4.9819   0.4697   1.1878   C.ar      1 1      0.0000
     2 C4      -5.1024  -0.5926   0.2847   C.ar      1 1      0.0000
     3 C3      -3.9980  -0.9961  -0.4733   C.ar      1 1      0.0000
     4 C8      -2.7631  -0.3429  -0.3373   C.ar      1 1      0.0000
     5 C7      -2.6532   0.7265   0.5645   C.ar      1 1      0.0000
     6 C6      -3.7568   1.1319   1.3231   C.ar      1 1      0.0000
     7 H4      -6.0546  -1.0995   0.1663   H         1 1      0.0000
     8 C9      -1.5469  -0.8295  -1.1081   C.3       1 1      0.0000
     9 H7      -1.7070   1.2537   0.6645   H         1 1      0.0000
    10 H6      -3.6630   1.9654   2.0118   H         1 1      0.0000
    11 C10     -0.3233   0.0617  -0.7829   C.3       1 1      0.0000
    12 H9A     -1.3182  -1.8689  -0.8477   H         1 1      0.0000
    13 C11      0.9326  -0.3439  -1.5016   C.3       1 1      0.0000
    14 C12      2.1774   0.5236  -1.2496   C.3       1 1      0.0000
    15 H12A     1.9626   1.5567  -1.5574   H         1 1      0.0000
    16 C13      2.7648   0.5487   0.1453   C.2       1 1      0.0000
    17 C14      3.8672   1.5301   0.4186   C.3       1 1      0.0000
    18 H14B     3.9099   1.7307   1.4949   H         1 1      0.0000
    19 H14A     3.6840   2.4779  -0.0955   H         1 1      0.0000
    20 N        2.2931  -0.2475   1.0590   N.pl3     1 1      0.0000
    21 HN       1.4918  -0.8464   0.7385   H         1 1      0.0000
    22 C        2.7704  -0.3720   2.4678   C.3       1 1      0.0000
    23 H1A      2.0852  -1.0443   2.9860   H         1 1      0.0000
    24 H1C      3.7788  -0.7979   2.4828   H         1 1      0.0000
    25 H1B      2.7682   0.6037   2.9596   H         1 1      0.0000
    26 H10A    -0.5458   1.1125  -1.0290   H         1 1      0.0000
    27 H10B    -0.1274   0.0494   0.3011   H         1 1      0.0000
    28 H9B     -1.7398  -0.8026  -2.1862   H         1 1      0.0000
    29 H5      -5.8388   0.7858   1.7736   H         1 1      0.0000
    30 H3      -4.1016  -1.8129  -1.1842   H         1 1      0.0000
    31 H12B     2.9694   0.1816  -1.9361   H         1 1      0.0000
    32 C15      5.2466   0.9465  -0.0407   C.3       1 1      0.0000
    33 H15A     5.4872   0.0236   0.4961   H         1 1      0.0000
    34 H15B     5.2560   0.7427  -1.1157   H         1 1      0.0000
    35 H15C     6.0275   1.6808   0.1778   H         1 1      0.0000
    36 O2       1.2401  -1.6754  -1.1383   O.3       1 1      0.0000
    37 H21      0.5552  -2.2878  -1.5150   H         1 1      0.0000
    38 H22      0.7255  -0.3286  -2.5706   H         1 1      0.0000
@<TRIPOS>BOND
     1     1     2   ar
     2     1     6   ar
     3     1    29    1
     4     2     3   ar
     5     2     7    1
     6     3     4   ar
     7     3    30    1
     8     4     5   ar
     9     4     8    1
    10     5     6   ar
    11     5     9    1
    12     6    10    1
    13     8    11    1
    14     8    12    1
    15     8    28    1
    16    11    13    1
    17    11    26    1
    18    11    27    1
    19    13    14    1
    20    14    15    1
    21    14    16    1
    22    14    31    1
    23    16    17    1
    24    16    20    2
    25    17    18    1
    26    17    19    1
    27    17    32    1
    28    20    21    1
    29    20    22    1
    30    22    23    1
    31    22    24    1
    32    22    25    1
    33    32    33    1
    34    32    34    1
    35    32    35    1
    36    13    36    1
    37    36    37    1
    38    13    38    1
@<TRIPOS>SUBSTRUCTURE
     1 1           1 GROUP             0 ****  ****    0  
@<TRIPOS>MOLECULE
Molecule Name_00001_00064
    38    38     1     0     0
SMALL
NO_CHARGES
****
Generated from the CSD

@<TRIPOS>ATOM
     1 C5      -4.1518   1.2773  -1.2062   C.ar      1 1      0.0000
     2 C4      -3.2227   0.3496  -1.6908   C.ar      1 1      0.0000
     3 C3      -2.5100  -0.4591  -0.7989   C.ar      1 1      0.0000
     4 C8      -2.7178  -0.3493   0.5848   C.ar      1 1      0.0000
     5 C7      -3.6453   0.5891   1.0626   C.ar      1 1      0.0000
     6 C6      -4.3585   1.3993   0.1722   C.ar      1 1      0.0000
     7 H4      -3.0488   0.2620  -2.7584   H         1 1      0.0000
     8 C9      -1.9961  -1.2785   1.5469   C.3       1 1      0.0000
     9 H7      -3.8008   0.6979   2.1336   H         1 1      0.0000
    10 H6      -5.0676   2.1274   0.5528   H         1 1      0.0000
    11 C10     -0.6159  -0.6850   1.9204   C.3       1 1      0.0000
    12 H9A     -2.5878  -1.4224   2.4578   H         1 1      0.0000
    13 C11      0.3713  -0.6812   0.7873   C.3       1 1      0.0000
    14 C12      1.7485  -0.0620   1.0798   C.3       1 1      0.0000
    15 H12A     2.2371  -0.6363   1.8796   H         1 1      0.0000
    16 C13      2.7243   0.0931  -0.0671   C.2       1 1      0.0000
    17 C14      2.4587   1.1831  -1.0643   C.3       1 1      0.0000
    18 H14B     1.3804   1.2455  -1.2485   H         1 1      0.0000
    19 H14A     2.9533   0.9715  -2.0166   H         1 1      0.0000
    20 N        3.7594  -0.6903  -0.1445   N.pl3     1 1      0.0000
    21 HN       3.8430  -1.3756   0.6472   H         1 1      0.0000
    22 C        4.7990  -0.6932  -1.2157   C.3       1 1      0.0000
    23 H1A      5.5777  -1.3944  -0.9126   H         1 1      0.0000
    24 H1C      4.3582  -1.0254  -2.1611   H         1 1      0.0000
    25 H1B      5.2296   0.3042  -1.3328   H         1 1      0.0000
    26 H10A    -0.7356   0.3476   2.2862   H         1 1      0.0000
    27 H10B    -0.1814  -1.2462   2.7630   H         1 1      0.0000
    28 H9B     -1.8565  -2.2664   1.0943   H         1 1      0.0000
    29 H5      -4.7023   1.9075  -1.8968   H         1 1      0.0000
    30 H3      -1.7786  -1.1680  -1.1808   H         1 1      0.0000
    31 H12B     1.5819   0.9392   1.5101   H         1 1      0.0000
    32 C15      2.9568   2.5626  -0.5138   C.3       1 1      0.0000
    33 H15A     2.4405   2.8315   0.4129   H         1 1      0.0000
    34 H15B     4.0349   2.5524  -0.3273   H         1 1      0.0000
    35 H15C     2.7431   3.3346  -1.2589   H         1 1      0.0000
    36 O2       0.5668  -2.0167   0.3662   O.3       1 1      0.0000
    37 H21     -0.2592  -2.3497  -0.0730   H         1 1      0.0000
    38 H22     -0.0731  -0.1313  -0.0410   H         1 1      0.0000
@<TRIPOS>BOND
     1     1     2   ar
     2     1     6   ar
     3     1    29    1
     4     2     3   ar
     5     2     7    1
     6     3     4   ar
     7     3    30    1
     8     4     5   ar
     9     4     8    1
    10     5     6   ar
    11     5     9    1
    12     6    10    1
    13     8    11    1
    14     8    12    1
    15     8    28    1
    16    11    13    1
    17    11    26    1
    18    11    27    1
    19    13    14    1
    20    14    15    1
    21    14    16    1
    22    14    31    1
    23    16    17    1
    24    16    20    2
    25    17    18    1
    26    17    19    1
    27    17    32    1
    28    20    21    1
    29    20    22    1
    30    22    23    1
    31    22    24    1
    32    22    25    1
    33    32    33    1
    34    32    34    1
    35    32    35    1
    36    13    36    1
    37    36    37    1
    38    13    38    1
@<TRIPOS>SUBSTRUCTURE
     1 1           1 GROUP             0 ****  ****    0  
@<TRIPOS>MOLECULE
Molecule Name_00001_00065
    38    38     1     0     0
SMALL
NO_CHARGES
****
Generated from the CSD

@<TRIPOS>ATOM
     1 C5      -4.0246   1.5795  -0.9665   C.ar      1 1      0.0000
     2 C4      -3.0406   0.8187  -1.6080   C.ar      1 1      0.0000
     3 C3      -2.3552  -0.1770  -0.9038   C.ar      1 1      0.0000
     4 C8      -2.6452  -0.4224   0.4474   C.ar      1 1      0.0000
     5 C7      -3.6275   0.3505   1.0851   C.ar      1 1      0.0000
     6 C6      -4.3137   1.3472   0.3826   C.ar      1 1      0.0000
     7 H4      -2.8033   1.0054  -2.6504   H         1 1      0.0000
     8 C9      -1.9510  -1.5523   1.1900   C.3       1 1      0.0000
     9 H7      -3.8474   0.1837   2.1373   H         1 1      0.0000
    10 H6      -5.0658   1.9447   0.8876   H         1 1      0.0000
    11 C10     -0.6137  -1.0499   1.7867   C.3       1 1      0.0000
    12 H9A     -2.5890  -1.9303   1.9965   H         1 1      0.0000
    13 C11      0.4361  -0.7451   0.7556   C.3       1 1      0.0000
    14 C12      1.7742  -0.1976   1.2803   C.3       1 1      0.0000
    15 H12A     2.2341  -0.9467   1.9402   H         1 1      0.0000
    16 C13      2.8087   0.2569   0.2729   C.2       1 1      0.0000
    17 C14      2.5665   1.5584  -0.4345   C.3       1 1      0.0000
    18 H14B     3.5227   1.9543  -0.7942   H         1 1      0.0000
    19 H14A     2.1277   2.2965   0.2430   H         1 1      0.0000
    20 N        3.8707  -0.4651   0.0675   N.pl3     1 1      0.0000
    21 HN       3.9303  -1.3262   0.6662   H         1 1      0.0000
    22 C        4.9694  -0.1815  -0.9022   C.3       1 1      0.0000
    23 H1A      5.7512  -0.9238  -0.7356   H         1 1      0.0000
    24 H1C      4.5941  -0.2720  -1.9266   H         1 1      0.0000
    25 H1B      5.3745   0.8201  -0.7385   H         1 1      0.0000
    26 H10A    -0.7865  -0.1447   2.3910   H         1 1      0.0000
    27 H10B    -0.2108  -1.7981   2.4879   H         1 1      0.0000
    28 H9B     -1.7547  -2.3920   0.5143   H         1 1      0.0000
    29 H5      -4.5542   2.3544  -1.5108   H         1 1      0.0000
    30 H3      -1.5812  -0.7552  -1.4038   H         1 1      0.0000
    31 H12B     1.5518   0.6603   1.9361   H         1 1      0.0000
    32 C15      1.6151   1.3467  -1.6610   C.3       1 1      0.0000
    33 H15A     1.8085   0.3892  -2.1544   H         1 1      0.0000
    34 H15B     0.5633   1.3836  -1.3616   H         1 1      0.0000
    35 H15C     1.7954   2.1458  -2.3860   H         1 1      0.0000
    36 O2       0.6973  -1.9283   0.0268   O.3       1 1      0.0000
    37 H21      0.0232  -2.0278  -0.6955   H         1 1      0.0000
    38 H22      0.0229  -0.0117   0.0648   H         1 1      0.0000
@<TRIPOS>BOND
     1     1     2   ar
     2     1     6   ar
     3     1    29    1
     4     2     3   ar
     5     2     7    1
     6     3     4   ar
     7     3    30    1
     8     4     5   ar
     9     4     8    1
    10     5     6   ar
    11     5     9    1
    12     6    10    1
    13     8    11    1
    14     8    12    1
    15     8    28    1
    16    11    13    1
    17    11    26    1
    18    11    27    1
    19    13    14    1
    20    14    15    1
    21    14    16    1
    22    14    31    1
    23    16    17    1
    24    16    20    2
    25    17    18    1
    26    17    19    1
    27    17    32    1
    28    20    21    1
    29    20    22    1
    30    22    23    1
    31    22    24    1
    32    22    25    1
    33    32    33    1
    34    32    34    1
    35    32    35    1
    36    13    36    1
    37    36    37    1
    38    13    38    1
@<TRIPOS>SUBSTRUCTURE
     1 1           1 GROUP             0 ****  ****    0  
@<TRIPOS>MOLECULE
Molecule Name_00001_00066
    38    38     1     0     0
SMALL
NO_CHARGES
****
Generated from the CSD

@<TRIPOS>ATOM
     1 C5      -4.2649  -1.3973   1.0280   C.ar      1 1      0.0000
     2 C4      -3.2873  -0.6588   1.7044   C.ar      1 1      0.0000
     3 C3      -2.5357   0.3015   1.0187   C.ar      1 1      0.0000
     4 C8      -2.7525   0.5334  -0.3485   C.ar      1 1      0.0000
     5 C7      -3.7290  -0.2172  -1.0208   C.ar      1 1      0.0000
     6 C6      -4.4813  -1.1785  -0.3370   C.ar      1 1      0.0000
     7 H4      -3.1063  -0.8356   2.7597   H         1 1      0.0000
     8 C9      -1.9857   1.6268  -1.0740   C.3       1 1      0.0000
     9 H7      -3.8928  -0.0610  -2.0848   H         1 1      0.0000
    10 H6      -5.2285  -1.7591  -0.8683   H         1 1      0.0000
    11 C10     -0.6393   1.0702  -1.5979   C.3       1 1      0.0000
    12 H9A     -2.5714   2.0120  -1.9161   H         1 1      0.0000
    13 C11      0.3492   0.7484  -0.5128   C.3       1 1      0.0000
    14 C12      1.6913   0.1479  -0.9640   C.3       1 1      0.0000
    15 H12A     2.2160   0.8776  -1.5967   H         1 1      0.0000
    16 C13      2.6503  -0.3462   0.0981   C.2       1 1      0.0000
    17 C14      3.3783   0.6837   0.9119   C.3       1 1      0.0000
    18 H14B     3.6975   0.2328   1.8581   H         1 1      0.0000
    19 H14A     2.7273   1.5316   1.1433   H         1 1      0.0000
    20 N        2.7980  -1.6239   0.2905   N.pl3     1 1      0.0000
    21 HN       2.1908  -2.2260  -0.3196   H         1 1      0.0000
    22 C        3.7149  -2.2793   1.2692   C.3       1 1      0.0000
    23 H1A      3.5048  -3.3495   1.2468   H         1 1      0.0000
    24 H1C      4.7558  -2.1068   0.9771   H         1 1      0.0000
    25 H1B      3.5390  -1.8925   2.2759   H         1 1      0.0000
    26 H10A    -0.8138   0.1612  -2.1958   H         1 1      0.0000
    27 H10B    -0.1783   1.7927  -2.2902   H         1 1      0.0000
    28 H9B     -1.7934   2.4709  -0.4027   H         1 1      0.0000
    29 H5      -4.8458  -2.1449   1.5580   H         1 1      0.0000
    30 H3      -1.7672   0.8620   1.5465   H         1 1      0.0000
    31 H12B     1.4716  -0.7012  -1.6321   H         1 1      0.0000
    32 C15      4.6448   1.1937   0.1438   C.3       1 1      0.0000
    33 H15A     5.3453   0.3769  -0.0559   H         1 1      0.0000
    34 H15B     4.3732   1.6661  -0.8050   H         1 1      0.0000
    35 H15C     5.1554   1.9358   0.7647   H         1 1      0.0000
    36 O2       0.6155   1.9345   0.2094   O.3       1 1      0.0000
    37 H21     -0.1909   2.1948   0.7271   H         1 1      0.0000
    38 H22     -0.1211   0.0408   0.1684   H         1 1      0.0000
@<TRIPOS>BOND
     1     1     2   ar
     2     1     6   ar
     3     1    29    1
     4     2     3   ar
     5     2     7    1
     6     3     4   ar
     7     3    30    1
     8     4     5   ar
     9     4     8    1
    10     5     6   ar
    11     5     9    1
    12     6    10    1
    13     8    11    1
    14     8    12    1
    15     8    28    1
    16    11    13    1
    17    11    26    1
    18    11    27    1
    19    13    14    1
    20    14    15    1
    21    14    16    1
    22    14    31    1
    23    16    17    1
    24    16    20    2
    25    17    18    1
    26    17    19    1
    27    17    32    1
    28    20    21    1
    29    20    22    1
    30    22    23    1
    31    22    24    1
    32    22    25    1
    33    32    33    1
    34    32    34    1
    35    32    35    1
    36    13    36    1
    37    36    37    1
    38    13    38    1
@<TRIPOS>SUBSTRUCTURE
     1 1           1 GROUP             0 ****  ****    0  
@<TRIPOS>MOLECULE
Molecule Name_00001_00067
    38    38     1     0     0
SMALL
NO_CHARGES
****
Generated from the CSD

@<TRIPOS>ATOM
     1 C5      -3.3666   1.6975  -1.1070   C.ar      1 1      0.0000
     2 C4      -2.8676   0.6024  -1.8214   C.ar      1 1      0.0000
     3 C3      -2.3985  -0.5247  -1.1382   C.ar      1 1      0.0000
     4 C8      -2.4227  -0.5692   0.2645   C.ar      1 1      0.0000
     5 C7      -2.9170   0.5363   0.9732   C.ar      1 1      0.0000
     6 C6      -3.3861   1.6648   0.2917   C.ar      1 1      0.0000
     7 H4      -2.8373   0.6296  -2.9059   H         1 1      0.0000
     8 C9      -1.9803  -1.8225   1.0018   C.3       1 1      0.0000
     9 H7      -2.9226   0.5222   2.0609   H         1 1      0.0000
    10 H6      -3.7589   2.5176   0.8498   H         1 1      0.0000
    11 C10     -0.7793  -1.4979   1.9232   C.3       1 1      0.0000
    12 H9A     -2.8025  -2.2232   1.6049   H         1 1      0.0000
    13 C11      0.5149  -1.2952   1.1869   C.3       1 1      0.0000
    14 C12      0.6760   0.0382   0.4374   C.3       1 1      0.0000
    15 H12A     0.5915   0.8657   1.1559   H         1 1      0.0000
    16 C13      1.9230   0.2482  -0.3947   C.2       1 1      0.0000
    17 C14      2.0763   1.5649  -1.0988   C.3       1 1      0.0000
    18 H14B     1.1002   1.8820  -1.4825   H         1 1      0.0000
    19 H14A     2.7616   1.4780  -1.9468   H         1 1      0.0000
    20 N        2.8224  -0.6890  -0.4580   N.pl3     1 1      0.0000
    21 HN       2.6044  -1.5372   0.1222   H         1 1      0.0000
    22 C        4.0888  -0.6595  -1.2475   C.3       1 1      0.0000
    23 H1A      4.6578  -1.5524  -0.9850   H         1 1      0.0000
    24 H1C      3.8603  -0.6754  -2.3180   H         1 1      0.0000
    25 H1B      4.6716   0.2316  -1.0018   H         1 1      0.0000
    26 H10A    -0.9920  -0.5936   2.5161   H         1 1      0.0000
    27 H10B    -0.6418  -2.3058   2.6595   H         1 1      0.0000
    28 H9B     -1.6918  -2.6044   0.2907   H         1 1      0.0000
    29 H5      -3.7272   2.5736  -1.6358   H         1 1      0.0000
    30 H3      -1.9983  -1.3668  -1.6986   H         1 1      0.0000
    31 H12B    -0.1920   0.1538  -0.2323   H         1 1      0.0000
    32 C15      2.6080   2.6568  -0.1092   C.3       1 1      0.0000
    33 H15A     1.9165   2.8085   0.7254   H         1 1      0.0000
    34 H15B     3.5907   2.3890   0.2905   H         1 1      0.0000
    35 H15C     2.7019   3.6032  -0.6498   H         1 1      0.0000
    36 O2       1.5753  -1.4122   2.1150   O.3       1 1      0.0000
    37 H21      1.5556  -2.3151   2.5279   H         1 1      0.0000
    38 H22      0.6160  -2.1007   0.4610   H         1 1      0.0000
@<TRIPOS>BOND
     1     1     2   ar
     2     1     6   ar
     3     1    29    1
     4     2     3   ar
     5     2     7    1
     6     3     4   ar
     7     3    30    1
     8     4     5   ar
     9     4     8    1
    10     5     6   ar
    11     5     9    1
    12     6    10    1
    13     8    11    1
    14     8    12    1
    15     8    28    1
    16    11    13    1
    17    11    26    1
    18    11    27    1
    19    13    14    1
    20    14    15    1
    21    14    16    1
    22    14    31    1
    23    16    17    1
    24    16    20    2
    25    17    18    1
    26    17    19    1
    27    17    32    1
    28    20    21    1
    29    20    22    1
    30    22    23    1
    31    22    24    1
    32    22    25    1
    33    32    33    1
    34    32    34    1
    35    32    35    1
    36    13    36    1
    37    36    37    1
    38    13    38    1
@<TRIPOS>SUBSTRUCTURE
     1 1           1 GROUP             0 ****  ****    0  
@<TRIPOS>MOLECULE
Molecule Name_00001_00068
    38    38     1     0     0
SMALL
NO_CHARGES
****
Generated from the CSD

@<TRIPOS>ATOM
     1 C5      -3.2194   1.9811  -0.7396   C.ar      1 1      0.0000
     2 C4      -2.6352   1.1139  -1.6698   C.ar      1 1      0.0000
     3 C3      -2.2044  -0.1555  -1.2694   C.ar      1 1      0.0000
     4 C8      -2.3523  -0.5710   0.0630   C.ar      1 1      0.0000
     5 C7      -2.9317   0.3078   0.9909   C.ar      1 1      0.0000
     6 C6      -3.3626   1.5780   0.5926   C.ar      1 1      0.0000
     7 H4      -2.5091   1.4282  -2.7008   H         1 1      0.0000
     8 C9      -1.9502  -1.9763   0.4793   C.3       1 1      0.0000
     9 H7      -3.0336   0.0052   2.0307   H         1 1      0.0000
    10 H6      -3.8020   2.2529   1.3201   H         1 1      0.0000
    11 C10     -0.8432  -1.9115   1.5598   C.3       1 1      0.0000
    12 H9A     -2.8139  -2.5206   0.8770   H         1 1      0.0000
    13 C11      0.5067  -1.5240   1.0251   C.3       1 1      0.0000
    14 C12      0.7048  -0.0399   0.6736   C.3       1 1      0.0000
    15 H12A     0.5388   0.5672   1.5747   H         1 1      0.0000
    16 C13      2.0161   0.3803   0.0446   C.2       1 1      0.0000
    17 C14      2.2027   1.8363  -0.2686   C.3       1 1      0.0000
    18 H14B     3.2746   2.0571  -0.3214   H         1 1      0.0000
    19 H14A     1.7658   2.4641   0.5133   H         1 1      0.0000
    20 N        2.9377  -0.5089  -0.1820   N.pl3     1 1      0.0000
    21 HN       2.6873  -1.4801   0.1303   H         1 1      0.0000
    22 C        4.2683  -0.2741  -0.8161   C.3       1 1      0.0000
    23 H1A      4.8310  -1.2062  -0.7485   H         1 1      0.0000
    24 H1C      4.1364  -0.0043  -1.8689   H         1 1      0.0000
    25 H1B      4.8074   0.5181  -0.2909   H         1 1      0.0000
    26 H10A    -1.1275  -1.1968   2.3489   H         1 1      0.0000
    27 H10B    -0.7544  -2.8864   2.0653   H         1 1      0.0000
    28 H9B     -1.5827  -2.5420  -0.3839   H         1 1      0.0000
    29 H5      -3.5505   2.9673  -1.0482   H         1 1      0.0000
    30 H3      -1.7377  -0.8195  -1.9938   H         1 1      0.0000
    31 H12B    -0.1025   0.2520  -0.0182   H         1 1      0.0000
    32 C15      1.5468   2.1888  -1.6469   C.3       1 1      0.0000
    33 H15A     2.0004   1.6162  -2.4618   H         1 1      0.0000
    34 H15B     0.4696   1.9970  -1.6372   H         1 1      0.0000
    35 H15C     1.7058   3.2522  -1.8484   H         1 1      0.0000
    36 O2       1.4825  -1.8863   1.9822   O.3       1 1      0.0000
    37 H21      1.4458  -2.8664   2.1376   H         1 1      0.0000
    38 H22      0.6893  -2.1080   0.1243   H         1 1      0.0000
@<TRIPOS>BOND
     1     1     2   ar
     2     1     6   ar
     3     1    29    1
     4     2     3   ar
     5     2     7    1
     6     3     4   ar
     7     3    30    1
     8     4     5   ar
     9     4     8    1
    10     5     6   ar
    11     5     9    1
    12     6    10    1
    13     8    11    1
    14     8    12    1
    15     8    28    1
    16    11    13    1
    17    11    26    1
    18    11    27    1
    19    13    14    1
    20    14    15    1
    21    14    16    1
    22    14    31    1
    23    16    17    1
    24    16    20    2
    25    17    18    1
    26    17    19    1
    27    17    32    1
    28    20    21    1
    29    20    22    1
    30    22    23    1
    31    22    24    1
    32    22    25    1
    33    32    33    1
    34    32    34    1
    35    32    35    1
    36    13    36    1
    37    36    37    1
    38    13    38    1
@<TRIPOS>SUBSTRUCTURE
     1 1           1 GROUP             0 ****  ****    0  
@<TRIPOS>MOLECULE
Molecule Name_00001_00069
    38    38     1     0     0
SMALL
NO_CHARGES
****
Generated from the CSD

@<TRIPOS>ATOM
     1 C5      -4.3617  -1.0263  -1.1622   C.ar      1 1      0.0000
     2 C4      -4.7122  -1.0313   0.1927   C.ar      1 1      0.0000
     3 C3      -3.9044  -0.3750   1.1275   C.ar      1 1      0.0000
     4 C8      -2.7391   0.2922   0.7188   C.ar      1 1      0.0000
     5 C7      -2.3907   0.2854  -0.6404   C.ar      1 1      0.0000
     6 C6      -3.1970  -0.3710  -1.5768   C.ar      1 1      0.0000
     7 H4      -5.6070  -1.5507   0.5203   H         1 1      0.0000
     8 C9      -1.9026   1.0652   1.7252   C.3       1 1      0.0000
     9 H7      -1.4796   0.7817  -0.9670   H         1 1      0.0000
    10 H6      -2.9141  -0.3770  -2.6245   H         1 1      0.0000
    11 C10     -0.6459   1.6466   1.0328   C.3       1 1      0.0000
    12 H9A     -2.4868   1.8825   2.1624   H         1 1      0.0000
    13 C11      0.3916   0.6150   0.6896   C.3       1 1      0.0000
    14 C12      1.6380   1.1182  -0.0578   C.3       1 1      0.0000
    15 H12A     2.1632   1.8495   0.5726   H         1 1      0.0000
    16 C13      2.6418   0.0971  -0.5492   C.2       1 1      0.0000
    17 C14      3.8649   0.6069  -1.2541   C.3       1 1      0.0000
    18 H14B     3.5848   1.4526  -1.8920   H         1 1      0.0000
    19 H14A     4.3012  -0.1679  -1.8911   H         1 1      0.0000
    20 N        2.4347  -1.1683  -0.3317   N.pl3     1 1      0.0000
    21 HN       1.5612  -1.3758   0.2137   H         1 1      0.0000
    22 C        3.3010  -2.3028  -0.7680   C.3       1 1      0.0000
    23 H1A      2.8953  -3.2127  -0.3237   H         1 1      0.0000
    24 H1C      3.2789  -2.3896  -1.8591   H         1 1      0.0000
    25 H1B      4.3276  -2.1537  -0.4246   H         1 1      0.0000
    26 H10A    -0.9341   2.1761   0.1103   H         1 1      0.0000
    27 H10B    -0.1820   2.4107   1.6768   H         1 1      0.0000
    28 H9B     -1.5943   0.4129   2.5496   H         1 1      0.0000
    29 H5      -4.9855  -1.5382  -1.8876   H         1 1      0.0000
    30 H3      -4.1742  -0.3948   2.1811   H         1 1      0.0000
    31 H12B     1.2949   1.6930  -0.9339   H         1 1      0.0000
    32 C15      4.9338   1.0907  -0.2160   C.3       1 1      0.0000
    33 H15A     4.5472   1.9060   0.4032   H         1 1      0.0000
    34 H15B     5.2553   0.2733   0.4366   H         1 1      0.0000
    35 H15C     5.8075   1.4614  -0.7602   H         1 1      0.0000
    36 O2       0.8143  -0.0036   1.8888   O.3       1 1      0.0000
    37 H21      0.0972  -0.6043   2.2220   H         1 1      0.0000
    38 H22     -0.0845  -0.1448   0.0716   H         1 1      0.0000
@<TRIPOS>BOND
     1     1     2   ar
     2     1     6   ar
     3     1    29    1
     4     2     3   ar
     5     2     7    1
     6     3     4   ar
     7     3    30    1
     8     4     5   ar
     9     4     8    1
    10     5     6   ar
    11     5     9    1
    12     6    10    1
    13     8    11    1
    14     8    12    1
    15     8    28    1
    16    11    13    1
    17    11    26    1
    18    11    27    1
    19    13    14    1
    20    14    15    1
    21    14    16    1
    22    14    31    1
    23    16    17    1
    24    16    20    2
    25    17    18    1
    26    17    19    1
    27    17    32    1
    28    20    21    1
    29    20    22    1
    30    22    23    1
    31    22    24    1
    32    22    25    1
    33    32    33    1
    34    32    34    1
    35    32    35    1
    36    13    36    1
    37    36    37    1
    38    13    38    1
@<TRIPOS>SUBSTRUCTURE
     1 1           1 GROUP             0 ****  ****    0  
@<TRIPOS>MOLECULE
Molecule Name_00001_00070
    38    38     1     0     0
SMALL
NO_CHARGES
****
Generated from the CSD

@<TRIPOS>ATOM
     1 C5      -4.2206  -0.2752  -1.5458   C.ar      1 1      0.0000
     2 C4      -4.6585  -0.8359  -0.3406   C.ar      1 1      0.0000
     3 C3      -3.8988  -0.6758   0.8231   C.ar      1 1      0.0000
     4 C8      -2.6949   0.0452   0.7949   C.ar      1 1      0.0000
     5 C7      -2.2591   0.5971  -0.4194   C.ar      1 1      0.0000
     6 C6      -3.0171   0.4375  -1.5845   C.ar      1 1      0.0000
     7 H4      -5.5840  -1.4017  -0.3094   H         1 1      0.0000
     8 C9      -1.9086   0.2793   2.0743   C.3       1 1      0.0000
     9 H7      -1.3179   1.1409  -0.4586   H         1 1      0.0000
    10 H6      -2.6669   0.8616  -2.5201   H         1 1      0.0000
    11 C10     -0.5969   1.0382   1.7577   C.3       1 1      0.0000
    12 H9A     -2.5017   0.8619   2.7879   H         1 1      0.0000
    13 C11      0.4375   0.2003   1.0604   C.3       1 1      0.0000
    14 C12      1.7408   0.9122   0.6603   C.3       1 1      0.0000
    15 H12A     2.2400   1.2824   1.5669   H         1 1      0.0000
    16 C13      2.7514   0.1481  -0.1681   C.2       1 1      0.0000
    17 C14      4.0288   0.8491  -0.5281   C.3       1 1      0.0000
    18 H14B     4.7987   0.1010  -0.7476   H         1 1      0.0000
    19 H14A     4.3837   1.4669   0.3017   H         1 1      0.0000
    20 N        2.5026  -1.0791  -0.5194   N.pl3     1 1      0.0000
    21 HN       1.5911  -1.4559  -0.1579   H         1 1      0.0000
    22 C        3.3700  -1.9626  -1.3531   C.3       1 1      0.0000
    23 H1A      2.9162  -2.9545  -1.3582   H         1 1      0.0000
    24 H1C      3.4170  -1.5788  -2.3773   H         1 1      0.0000
    25 H1B      4.3751  -2.0219  -0.9285   H         1 1      0.0000
    26 H10A    -0.8127   1.9212   1.1346   H         1 1      0.0000
    27 H10B    -0.1590   1.4353   2.6874   H         1 1      0.0000
    28 H9B     -1.6691  -0.6743   2.5576   H         1 1      0.0000
    29 H5      -4.8072  -0.4020  -2.4498   H         1 1      0.0000
    30 H3      -4.2370  -1.1264   1.7537   H         1 1      0.0000
    31 H12B     1.4682   1.8192   0.0958   H         1 1      0.0000
    32 C15      3.8227   1.7472  -1.7951   C.3       1 1      0.0000
    33 H15A     3.5195   1.1506  -2.6611   H         1 1      0.0000
    34 H15B     3.0696   2.5209  -1.6180   H         1 1      0.0000
    35 H15C     4.7709   2.2374  -2.0347   H         1 1      0.0000
    36 O2       0.7675  -0.8867   1.9024   O.3       1 1      0.0000
    37 H21      0.0171  -1.5370   1.9128   H         1 1      0.0000
    38 H22     -0.0142  -0.2032   0.1554   H         1 1      0.0000
@<TRIPOS>BOND
     1     1     2   ar
     2     1     6   ar
     3     1    29    1
     4     2     3   ar
     5     2     7    1
     6     3     4   ar
     7     3    30    1
     8     4     5   ar
     9     4     8    1
    10     5     6   ar
    11     5     9    1
    12     6    10    1
    13     8    11    1
    14     8    12    1
    15     8    28    1
    16    11    13    1
    17    11    26    1
    18    11    27    1
    19    13    14    1
    20    14    15    1
    21    14    16    1
    22    14    31    1
    23    16    17    1
    24    16    20    2
    25    17    18    1
    26    17    19    1
    27    17    32    1
    28    20    21    1
    29    20    22    1
    30    22    23    1
    31    22    24    1
    32    22    25    1
    33    32    33    1
    34    32    34    1
    35    32    35    1
    36    13    36    1
    37    36    37    1
    38    13    38    1
@<TRIPOS>SUBSTRUCTURE
     1 1           1 GROUP             0 ****  ****    0  
@<TRIPOS>MOLECULE
Molecule Name_00001_00071
    38    38     1     0     0
SMALL
NO_CHARGES
****
Generated from the CSD

@<TRIPOS>ATOM
     1 C5      -4.8980  -0.0454  -1.0851   C.ar      1 1      0.0000
     2 C4      -3.7324  -0.4661  -1.7354   C.ar      1 1      0.0000
     3 C3      -2.5401  -0.6036  -1.0165   C.ar      1 1      0.0000
     4 C8      -2.5000  -0.3221   0.3579   C.ar      1 1      0.0000
     5 C7      -3.6713   0.1070   1.0004   C.ar      1 1      0.0000
     6 C6      -4.8646   0.2457   0.2831   C.ar      1 1      0.0000
     7 H4      -3.7507  -0.6790  -2.7994   H         1 1      0.0000
     8 C9      -1.2220  -0.5416   1.1508   C.3       1 1      0.0000
     9 H7      -3.6486   0.3475   2.0610   H         1 1      0.0000
    10 H6      -5.7629   0.5860   0.7881   H         1 1      0.0000
    11 C10     -0.3278   0.7197   1.0726   C.3       1 1      0.0000
    12 H9A     -1.4536  -0.7578   2.1997   H         1 1      0.0000
    13 C11      0.9644   0.5971   1.8299   C.3       1 1      0.0000
    14 C12      1.9999  -0.3894   1.2640   C.3       1 1      0.0000
    15 H12A     1.6057  -1.4117   1.3505   H         1 1      0.0000
    16 C13      2.4912  -0.1807  -0.1526   C.2       1 1      0.0000
    17 C14      3.4783   0.9246  -0.3912   C.3       1 1      0.0000
    18 H14B     3.2060   1.7878   0.2262   H         1 1      0.0000
    19 H14A     3.4673   1.2401  -1.4383   H         1 1      0.0000
    20 N        2.0724  -0.9633  -1.1030   N.pl3     1 1      0.0000
    21 HN       1.4200  -1.7217  -0.7825   H         1 1      0.0000
    22 C        2.4309  -0.8820  -2.5497   C.3       1 1      0.0000
    23 H1A      1.9970  -1.7530  -3.0428   H         1 1      0.0000
    24 H1C      2.0111   0.0299  -2.9864   H         1 1      0.0000
    25 H1B      3.5163  -0.8927  -2.6756   H         1 1      0.0000
    26 H10A    -0.0982   0.9550   0.0208   H         1 1      0.0000
    27 H10B    -0.8777   1.5942   1.4554   H         1 1      0.0000
    28 H9B     -0.6703  -1.4031   0.7587   H         1 1      0.0000
    29 H5      -5.8224   0.0651  -1.6424   H         1 1      0.0000
    30 H3      -1.6340  -0.9169  -1.5305   H         1 1      0.0000
    31 H12B     2.8810  -0.3678   1.9263   H         1 1      0.0000
    32 C15      4.9235   0.4620  -0.0018   C.3       1 1      0.0000
    33 H15A     4.9831   0.1904   1.0567   H         1 1      0.0000
    34 H15B     5.2452  -0.3928  -0.6044   H         1 1      0.0000
    35 H15C     5.6160   1.2898  -0.1804   H         1 1      0.0000
    36 O2       1.5621   1.8769   1.8956   O.3       1 1      0.0000
    37 H21      0.9508   2.5040   2.3636   H         1 1      0.0000
    38 H22      0.7277   0.2863   2.8464   H         1 1      0.0000
@<TRIPOS>BOND
     1     1     2   ar
     2     1     6   ar
     3     1    29    1
     4     2     3   ar
     5     2     7    1
     6     3     4   ar
     7     3    30    1
     8     4     5   ar
     9     4     8    1
    10     5     6   ar
    11     5     9    1
    12     6    10    1
    13     8    11    1
    14     8    12    1
    15     8    28    1
    16    11    13    1
    17    11    26    1
    18    11    27    1
    19    13    14    1
    20    14    15    1
    21    14    16    1
    22    14    31    1
    23    16    17    1
    24    16    20    2
    25    17    18    1
    26    17    19    1
    27    17    32    1
    28    20    21    1
    29    20    22    1
    30    22    23    1
    31    22    24    1
    32    22    25    1
    33    32    33    1
    34    32    34    1
    35    32    35    1
    36    13    36    1
    37    36    37    1
    38    13    38    1
@<TRIPOS>SUBSTRUCTURE
     1 1           1 GROUP             0 ****  ****    0  
@<TRIPOS>MOLECULE
Molecule Name_00001_00072
    38    38     1     0     0
SMALL
NO_CHARGES
****
Generated from the CSD

@<TRIPOS>ATOM
     1 C5      -4.7253   1.0509   0.8926   C.ar      1 1      0.0000
     2 C4      -3.5026   1.6627   1.1912   C.ar      1 1      0.0000
     3 C3      -2.3333   1.2415   0.5488   C.ar      1 1      0.0000
     4 C8      -2.3735   0.2057  -0.3974   C.ar      1 1      0.0000
     5 C7      -3.6023  -0.4078  -0.6849   C.ar      1 1      0.0000
     6 C6      -4.7727   0.0115  -0.0430   C.ar      1 1      0.0000
     7 H4      -3.4593   2.4593   1.9269   H         1 1      0.0000
     8 C9      -1.1150  -0.2007  -1.1465   C.3       1 1      0.0000
     9 H7      -3.6435  -1.2251  -1.4015   H         1 1      0.0000
    10 H6      -5.7165  -0.4752  -0.2669   H         1 1      0.0000
    11 C10     -0.3285  -1.2530  -0.3274   C.3       1 1      0.0000
    12 H9A     -1.3702  -0.6200  -2.1261   H         1 1      0.0000
    13 C11      0.9374  -1.7178  -0.9905   C.3       1 1      0.0000
    14 C12      2.0516  -0.6700  -1.1520   C.3       1 1      0.0000
    15 H12A     1.7181   0.1017  -1.8601   H         1 1      0.0000
    16 C13      2.5807   0.0131   0.0910   C.2       1 1      0.0000
    17 C14      1.7544   1.1172   0.6835   C.3       1 1      0.0000
    18 H14B     1.9991   1.2171   1.7468   H         1 1      0.0000
    19 H14A     0.6867   0.8947   0.6010   H         1 1      0.0000
    20 N        3.7027  -0.3819   0.6168   N.pl3     1 1      0.0000
    21 HN       4.1489  -1.1947   0.1231   H         1 1      0.0000
    22 C        4.3783   0.1944   1.8165   C.3       1 1      0.0000
    23 H1A      5.2331  -0.4429   2.0471   H         1 1      0.0000
    24 H1C      4.7291   1.2076   1.5953   H         1 1      0.0000
    25 H1B      3.6944   0.2122   2.6685   H         1 1      0.0000
    26 H10A    -0.0768  -0.8471   0.6657   H         1 1      0.0000
    27 H10B    -0.9658  -2.1304  -0.1328   H         1 1      0.0000
    28 H9B     -0.4767   0.6714  -1.3259   H         1 1      0.0000
    29 H5      -5.6322   1.3742   1.3929   H         1 1      0.0000
    30 H3      -1.3837   1.7110   0.7959   H         1 1      0.0000
    31 H12B     2.9049  -1.1611  -1.6482   H         1 1      0.0000
    32 C15      2.0603   2.4759  -0.0340   C.3       1 1      0.0000
    33 H15A     3.1123   2.7566   0.0765   H         1 1      0.0000
    34 H15B     1.8174   2.4282  -1.0998   H         1 1      0.0000
    35 H15C     1.4491   3.2590   0.4242   H         1 1      0.0000
    36 O2       1.4546  -2.8028  -0.2457   O.3       1 1      0.0000
    37 H21      0.7888  -3.5393  -0.2278   H         1 1      0.0000
    38 H22      0.6791  -2.0864  -1.9822   H         1 1      0.0000
@<TRIPOS>BOND
     1     1     2   ar
     2     1     6   ar
     3     1    29    1
     4     2     3   ar
     5     2     7    1
     6     3     4   ar
     7     3    30    1
     8     4     5   ar
     9     4     8    1
    10     5     6   ar
    11     5     9    1
    12     6    10    1
    13     8    11    1
    14     8    12    1
    15     8    28    1
    16    11    13    1
    17    11    26    1
    18    11    27    1
    19    13    14    1
    20    14    15    1
    21    14    16    1
    22    14    31    1
    23    16    17    1
    24    16    20    2
    25    17    18    1
    26    17    19    1
    27    17    32    1
    28    20    21    1
    29    20    22    1
    30    22    23    1
    31    22    24    1
    32    22    25    1
    33    32    33    1
    34    32    34    1
    35    32    35    1
    36    13    36    1
    37    36    37    1
    38    13    38    1
@<TRIPOS>SUBSTRUCTURE
     1 1           1 GROUP             0 ****  ****    0  
@<TRIPOS>MOLECULE
Molecule Name_00001_00073
    38    38     1     0     0
SMALL
NO_CHARGES
****
Generated from the CSD

@<TRIPOS>ATOM
     1 C5      -4.7191   0.4055  -1.0868   C.ar      1 1      0.0000
     2 C4      -3.5764   0.0077  -1.7900   C.ar      1 1      0.0000
     3 C3      -2.4143  -0.3452  -1.0957   C.ar      1 1      0.0000
     4 C8      -2.3817  -0.3040   0.3069   C.ar      1 1      0.0000
     5 C7      -3.5293   0.1039   1.0038   C.ar      1 1      0.0000
     6 C6      -4.6924   0.4578   0.3111   C.ar      1 1      0.0000
     7 H4      -3.5885  -0.0203  -2.8748   H         1 1      0.0000
     8 C9      -1.1422  -0.7569   1.0609   C.3       1 1      0.0000
     9 H7      -3.5106   0.1593   2.0900   H         1 1      0.0000
    10 H6      -5.5718   0.7796   0.8596   H         1 1      0.0000
    11 C10     -0.1503   0.4230   1.2053   C.3       1 1      0.0000
    12 H9A     -1.4125  -1.1275   2.0559   H         1 1      0.0000
    13 C11      1.1117   0.0701   1.9408   C.3       1 1      0.0000
    14 C12      2.0785  -0.8871   1.2237   C.3       1 1      0.0000
    15 H12A     1.6164  -1.8824   1.1602   H         1 1      0.0000
    16 C13      2.5831  -0.5018  -0.1506   C.2       1 1      0.0000
    17 C14      3.6229   0.5775  -0.2329   C.3       1 1      0.0000
    18 H14B     4.2127   0.4383  -1.1457   H         1 1      0.0000
    19 H14A     4.3045   0.5304   0.6212   H         1 1      0.0000
    20 N        2.1296  -1.1194  -1.2014   N.pl3     1 1      0.0000
    21 HN       1.4406  -1.8836  -0.9899   H         1 1      0.0000
    22 C        2.4954  -0.8492  -2.6231   C.3       1 1      0.0000
    23 H1A      2.0213  -1.6188  -3.2338   H         1 1      0.0000
    24 H1C      2.1212   0.1349  -2.9231   H         1 1      0.0000
    25 H1B      3.5793  -0.8939  -2.7539   H         1 1      0.0000
    26 H10A     0.1195   0.8131   0.2106   H         1 1      0.0000
    27 H10B    -0.6381   1.2620   1.7269   H         1 1      0.0000
    28 H9B     -0.6515  -1.5816   0.5325   H         1 1      0.0000
    29 H5      -5.6198   0.6830  -1.6245   H         1 1      0.0000
    30 H3      -1.5247  -0.6395  -1.6483   H         1 1      0.0000
    31 H12B     2.9590  -1.0238   1.8730   H         1 1      0.0000
    32 C15      2.9449   1.9890  -0.2810   C.3       1 1      0.0000
    33 H15A     3.1922   2.5182  -1.2064   H         1 1      0.0000
    34 H15B     1.8566   1.9123  -0.1979   H         1 1      0.0000
    35 H15C     3.3138   2.5833   0.5601   H         1 1      0.0000
    36 O2       1.8064   1.2678   2.2278   O.3       1 1      0.0000
    37 H21      1.2362   1.8543   2.7909   H         1 1      0.0000
    38 H22      0.8296  -0.3876   2.8878   H         1 1      0.0000
@<TRIPOS>BOND
     1     1     2   ar
     2     1     6   ar
     3     1    29    1
     4     2     3   ar
     5     2     7    1
     6     3     4   ar
     7     3    30    1
     8     4     5   ar
     9     4     8    1
    10     5     6   ar
    11     5     9    1
    12     6    10    1
    13     8    11    1
    14     8    12    1
    15     8    28    1
    16    11    13    1
    17    11    26    1
    18    11    27    1
    19    13    14    1
    20    14    15    1
    21    14    16    1
    22    14    31    1
    23    16    17    1
    24    16    20    2
    25    17    18    1
    26    17    19    1
    27    17    32    1
    28    20    21    1
    29    20    22    1
    30    22    23    1
    31    22    24    1
    32    22    25    1
    33    32    33    1
    34    32    34    1
    35    32    35    1
    36    13    36    1
    37    36    37    1
    38    13    38    1
@<TRIPOS>SUBSTRUCTURE
     1 1           1 GROUP             0 ****  ****    0  
@<TRIPOS>MOLECULE
Molecule Name_00001_00074
    38    38     1     0     0
SMALL
NO_CHARGES
****
Generated from the CSD

@<TRIPOS>ATOM
     1 C5      -4.7799   1.0064   0.7863   C.ar      1 1      0.0000
     2 C4      -4.5571   1.1930  -0.5827   C.ar      1 1      0.0000
     3 C3      -3.3813   0.7165  -1.1723   C.ar      1 1      0.0000
     4 C8      -2.4168   0.0495  -0.4010   C.ar      1 1      0.0000
     5 C7      -2.6445  -0.1262   0.9724   C.ar      1 1      0.0000
     6 C6      -3.8195   0.3503   1.5641   C.ar      1 1      0.0000
     7 H4      -5.2929   1.7141  -1.1866   H         1 1      0.0000
     8 C9      -1.1746  -0.5307  -1.0569   C.3       1 1      0.0000
     9 H7      -1.8957  -0.6237   1.5848   H         1 1      0.0000
    10 H6      -3.9819   0.2162   2.6287   H         1 1      0.0000
    11 C10     -0.2788  -1.2052   0.0106   C.3       1 1      0.0000
    12 H9A     -1.4516  -1.2693  -1.8173   H         1 1      0.0000
    13 C11      0.9791  -1.8106  -0.5454   C.3       1 1      0.0000
    14 C12      2.0477  -0.8273  -1.0520   C.3       1 1      0.0000
    15 H12A     1.6184  -0.2151  -1.8577   H         1 1      0.0000
    16 C13      2.7104   0.0926  -0.0489   C.2       1 1      0.0000
    17 C14      3.6247   1.1580  -0.5798   C.3       1 1      0.0000
    18 H14B     4.2029   0.7501  -1.4164   H         1 1      0.0000
    19 H14A     4.3288   1.4885   0.1892   H         1 1      0.0000
    20 N        2.4575  -0.0456   1.2192   N.pl3     1 1      0.0000
    21 HN       1.7634  -0.8021   1.4416   H         1 1      0.0000
    22 C        3.0411   0.7515   2.3382   C.3       1 1      0.0000
    23 H1A      2.5297   0.4514   3.2538   H         1 1      0.0000
    24 H1C      4.1102   0.5352   2.4310   H         1 1      0.0000
    25 H1B      2.8883   1.8198   2.1666   H         1 1      0.0000
    26 H10A    -0.0036  -0.4747   0.7885   H         1 1      0.0000
    27 H10B    -0.8457  -1.9916   0.5341   H         1 1      0.0000
    28 H9B     -0.6055   0.2560  -1.5644   H         1 1      0.0000
    29 H5      -5.6898   1.3788   1.2453   H         1 1      0.0000
    30 H3      -3.2072   0.8774  -2.2339   H         1 1      0.0000
    31 H12B     2.8436  -1.4167  -1.5366   H         1 1      0.0000
    32 C15      2.7968   2.3860  -1.0903   C.3       1 1      0.0000
    33 H15A     2.1191   2.1003  -1.9008   H         1 1      0.0000
    34 H15B     2.2116   2.8367  -0.2830   H         1 1      0.0000
    35 H15C     3.4898   3.1396  -1.4759   H         1 1      0.0000
    36 O2       1.5618  -2.6195   0.4574   O.3       1 1      0.0000
    37 H21      0.9246  -3.3355   0.7169   H         1 1      0.0000
    38 H22      0.6998  -2.4574  -1.3758   H         1 1      0.0000
@<TRIPOS>BOND
     1     1     2   ar
     2     1     6   ar
     3     1    29    1
     4     2     3   ar
     5     2     7    1
     6     3     4   ar
     7     3    30    1
     8     4     5   ar
     9     4     8    1
    10     5     6   ar
    11     5     9    1
    12     6    10    1
    13     8    11    1
    14     8    12    1
    15     8    28    1
    16    11    13    1
    17    11    26    1
    18    11    27    1
    19    13    14    1
    20    14    15    1
    21    14    16    1
    22    14    31    1
    23    16    17    1
    24    16    20    2
    25    17    18    1
    26    17    19    1
    27    17    32    1
    28    20    21    1
    29    20    22    1
    30    22    23    1
    31    22    24    1
    32    22    25    1
    33    32    33    1
    34    32    34    1
    35    32    35    1
    36    13    36    1
    37    36    37    1
    38    13    38    1
@<TRIPOS>SUBSTRUCTURE
     1 1           1 GROUP             0 ****  ****    0  
@<TRIPOS>MOLECULE
Molecule Name_00001_00075
    38    38     1     0     0
SMALL
NO_CHARGES
****
Generated from the CSD

@<TRIPOS>ATOM
     1 C5      -4.9881   0.8167   0.7230   C.ar      1 1      0.0000
     2 C4      -4.7806   0.9285  -0.6565   C.ar      1 1      0.0000
     3 C3      -3.5731   0.5021  -1.2199   C.ar      1 1      0.0000
     4 C8      -2.5615  -0.0397  -0.4117   C.ar      1 1      0.0000
     5 C7      -2.7747  -0.1407   0.9715   C.ar      1 1      0.0000
     6 C6      -3.9814   0.2859   1.5370   C.ar      1 1      0.0000
     7 H4      -5.5532   1.3531  -1.2893   H         1 1      0.0000
     8 C9      -1.2802  -0.5687  -1.0348   C.3       1 1      0.0000
     9 H7      -1.9909  -0.5402   1.6112   H         1 1      0.0000
    10 H6      -4.1329   0.2107   2.6090   H         1 1      0.0000
    11 C10     -0.3364  -1.1034   0.0698   C.3       1 1      0.0000
    12 H9A     -1.5023  -1.3742  -1.7435   H         1 1      0.0000
    13 C11      0.9626  -1.6499  -0.4522   C.3       1 1      0.0000
    14 C12      1.9553  -0.6260  -1.0281   C.3       1 1      0.0000
    15 H12A     1.4814  -0.1016  -1.8699   H         1 1      0.0000
    16 C13      2.5488   0.4043  -0.0912   C.2       1 1      0.0000
    17 C14      3.3815   1.4969  -0.6959   C.3       1 1      0.0000
    18 H14B     3.3971   2.3548  -0.0144   H         1 1      0.0000
    19 H14A     2.9596   1.8290  -1.6488   H         1 1      0.0000
    20 N        2.3074   0.3318   1.1846   N.pl3     1 1      0.0000
    21 HN       1.6714  -0.4575   1.4600   H         1 1      0.0000
    22 C        2.8313   1.2418   2.2455   C.3       1 1      0.0000
    23 H1A      2.3440   0.9658   3.1817   H         1 1      0.0000
    24 H1C      3.9135   1.1114   2.3465   H         1 1      0.0000
    25 H1B      2.5999   2.2822   2.0050   H         1 1      0.0000
    26 H10A    -0.1154  -0.3050   0.7965   H         1 1      0.0000
    27 H10B    -0.8433  -1.8933   0.6468   H         1 1      0.0000
    28 H9B     -0.7711   0.2226  -1.5960   H         1 1      0.0000
    29 H5      -5.9228   1.1505   1.1615   H         1 1      0.0000
    30 H3      -3.4120   0.6051  -2.2907   H         1 1      0.0000
    31 H12B     2.7922  -1.1858  -1.4772   H         1 1      0.0000
    32 C15      4.8517   1.0048  -0.9205   C.3       1 1      0.0000
    33 H15A     5.3236   0.7157   0.0237   H         1 1      0.0000
    34 H15B     4.8876   0.1544  -1.6082   H         1 1      0.0000
    35 H15C     5.4326   1.8239  -1.3546   H         1 1      0.0000
    36 O2       1.6040  -2.3457   0.5984   O.3       1 1      0.0000
    37 H21      1.0216  -3.0881   0.9079   H         1 1      0.0000
    38 H22      0.7313  -2.3689  -1.2367   H         1 1      0.0000
@<TRIPOS>BOND
     1     1     2   ar
     2     1     6   ar
     3     1    29    1
     4     2     3   ar
     5     2     7    1
     6     3     4   ar
     7     3    30    1
     8     4     5   ar
     9     4     8    1
    10     5     6   ar
    11     5     9    1
    12     6    10    1
    13     8    11    1
    14     8    12    1
    15     8    28    1
    16    11    13    1
    17    11    26    1
    18    11    27    1
    19    13    14    1
    20    14    15    1
    21    14    16    1
    22    14    31    1
    23    16    17    1
    24    16    20    2
    25    17    18    1
    26    17    19    1
    27    17    32    1
    28    20    21    1
    29    20    22    1
    30    22    23    1
    31    22    24    1
    32    22    25    1
    33    32    33    1
    34    32    34    1
    35    32    35    1
    36    13    36    1
    37    36    37    1
    38    13    38    1
@<TRIPOS>SUBSTRUCTURE
     1 1           1 GROUP             0 ****  ****    0  
@<TRIPOS>MOLECULE
Molecule Name_00001_00076
    38    38     1     0     0
SMALL
NO_CHARGES
****
Generated from the CSD

@<TRIPOS>ATOM
     1 C5      -5.6787  -0.3266   0.2153   C.ar      1 1      0.0000
     2 C4      -4.9150  -0.2544   1.3858   C.ar      1 1      0.0000
     3 C3      -3.5750   0.1431   1.3244   C.ar      1 1      0.0000
     4 C8      -2.9848   0.4719   0.0942   C.ar      1 1      0.0000
     5 C7      -3.7554   0.3889  -1.0755   C.ar      1 1      0.0000
     6 C6      -5.0955  -0.0090  -1.0163   C.ar      1 1      0.0000
     7 H4      -5.3595  -0.5138   2.3413   H         1 1      0.0000
     8 C9      -1.5509   0.9728   0.0388   C.3       1 1      0.0000
     9 H7      -3.3040   0.6218  -2.0374   H         1 1      0.0000
    10 H6      -5.6802  -0.0776  -1.9279   H         1 1      0.0000
    11 C10     -0.5747  -0.2260  -0.0436   C.3       1 1      0.0000
    12 H9A     -1.4043   1.6207  -0.8325   H         1 1      0.0000
    13 C11      0.8733   0.1717  -0.1027   C.3       1 1      0.0000
    14 C12      1.8985  -0.9743  -0.1339   C.3       1 1      0.0000
    15 H12A     1.7726  -1.5427  -1.0662   H         1 1      0.0000
    16 C13      3.3642  -0.6313   0.0271   C.2       1 1      0.0000
    17 C14      3.8535   0.6426  -0.5980   C.3       1 1      0.0000
    18 H14B     3.3721   0.7710  -1.5739   H         1 1      0.0000
    19 H14A     4.9354   0.6110  -0.7555   H         1 1      0.0000
    20 N        4.1409  -1.4207   0.7088   N.pl3     1 1      0.0000
    21 HN       3.6528  -2.2512   1.1279   H         1 1      0.0000
    22 C        5.6053  -1.2498   0.9416   C.3       1 1      0.0000
    23 H1A      5.9166  -2.0244   1.6437   H         1 1      0.0000
    24 H1C      6.1488  -1.3731  -0.0007   H         1 1      0.0000
    25 H1B      5.8121  -0.2649   1.3674   H         1 1      0.0000
    26 H10A    -0.7214  -0.8924   0.8217   H         1 1      0.0000
    27 H10B    -0.8070  -0.8393  -0.9289   H         1 1      0.0000
    28 H9B     -1.3185   1.5703   0.9271   H         1 1      0.0000
    29 H5      -6.7170  -0.6383   0.2614   H         1 1      0.0000
    30 H3      -2.9825   0.1832   2.2358   H         1 1      0.0000
    31 H12B     1.6345  -1.6828   0.6685   H         1 1      0.0000
    32 C15      3.4944   1.8700   0.3068   C.3       1 1      0.0000
    33 H15A     2.6688   2.4496  -0.1176   H         1 1      0.0000
    34 H15B     3.2211   1.5543   1.3182   H         1 1      0.0000
    35 H15C     4.3695   2.5231   0.3742   H         1 1      0.0000
    36 O2       1.0665   0.9698  -1.2539   O.3       1 1      0.0000
    37 H21      0.8381   1.9133  -1.0447   H         1 1      0.0000
    38 H22      1.0866   0.7871   0.7700   H         1 1      0.0000
@<TRIPOS>BOND
     1     1     2   ar
     2     1     6   ar
     3     1    29    1
     4     2     3   ar
     5     2     7    1
     6     3     4   ar
     7     3    30    1
     8     4     5   ar
     9     4     8    1
    10     5     6   ar
    11     5     9    1
    12     6    10    1
    13     8    11    1
    14     8    12    1
    15     8    28    1
    16    11    13    1
    17    11    26    1
    18    11    27    1
    19    13    14    1
    20    14    15    1
    21    14    16    1
    22    14    31    1
    23    16    17    1
    24    16    20    2
    25    17    18    1
    26    17    19    1
    27    17    32    1
    28    20    21    1
    29    20    22    1
    30    22    23    1
    31    22    24    1
    32    22    25    1
    33    32    33    1
    34    32    34    1
    35    32    35    1
    36    13    36    1
    37    36    37    1
    38    13    38    1
@<TRIPOS>SUBSTRUCTURE
     1 1           1 GROUP             0 ****  ****    0  
@<TRIPOS>MOLECULE
Molecule Name_00001_00077
    38    38     1     0     0
SMALL
NO_CHARGES
****
Generated from the CSD

@<TRIPOS>ATOM
     1 C5      -4.0636   1.4618  -1.0527   C.ar      1 1      0.0000
     2 C4      -4.5144   0.1966  -0.6596   C.ar      1 1      0.0000
     3 C3      -3.7252  -0.5991   0.1777   C.ar      1 1      0.0000
     4 C8      -2.4786  -0.1396   0.6303   C.ar      1 1      0.0000
     5 C7      -2.0306   1.1268   0.2248   C.ar      1 1      0.0000
     6 C6      -2.8181   1.9239  -0.6132   C.ar      1 1      0.0000
     7 H4      -5.4733  -0.1713  -1.0100   H         1 1      0.0000
     8 C9      -1.6561  -0.9750   1.5976   C.3       1 1      0.0000
     9 H7      -1.0575   1.4860   0.5524   H         1 1      0.0000
    10 H6      -2.4585   2.8984  -0.9273   H         1 1      0.0000
    11 C10     -0.7746  -1.9774   0.8133   C.3       1 1      0.0000
    12 H9A     -1.0158  -0.3319   2.2115   H         1 1      0.0000
    13 C11      0.3326  -1.3303   0.0300   C.3       1 1      0.0000
    14 C12      1.4705  -0.6956   0.8472   C.3       1 1      0.0000
    15 H12A     1.9637  -1.4771   1.4423   H         1 1      0.0000
    16 C13      2.5332   0.0902   0.1089   C.2       1 1      0.0000
    17 C14      2.1608   1.4495  -0.4073   C.3       1 1      0.0000
    18 H14B     1.1349   1.4188  -0.7906   H         1 1      0.0000
    19 H14A     2.8197   1.7512  -1.2265   H         1 1      0.0000
    20 N        3.7239  -0.4122  -0.0357   N.pl3     1 1      0.0000
    21 HN       3.8547  -1.3513   0.4166   H         1 1      0.0000
    22 C        4.8744   0.2102  -0.7547   C.3       1 1      0.0000
    23 H1A      5.7460  -0.4238  -0.5863   H         1 1      0.0000
    24 H1C      4.6610   0.2578  -1.8274   H         1 1      0.0000
    25 H1B      5.0703   1.2127  -0.3667   H         1 1      0.0000
    26 H10A    -0.3329  -2.7130   1.5049   H         1 1      0.0000
    27 H10B    -1.3987  -2.5642   0.1205   H         1 1      0.0000
    28 H9B     -2.3108  -1.5253   2.2822   H         1 1      0.0000
    29 H5      -4.6732   2.0783  -1.7051   H         1 1      0.0000
    30 H3      -4.0745  -1.5876   0.4680   H         1 1      0.0000
    31 H12B     1.0144  -0.0192   1.5888   H         1 1      0.0000
    32 C15      2.2382   2.5119   0.7415   C.3       1 1      0.0000
    33 H15A     1.5486   2.2689   1.5558   H         1 1      0.0000
    34 H15B     3.2514   2.5880   1.1476   H         1 1      0.0000
    35 H15C     1.9554   3.4876   0.3356   H         1 1      0.0000
    36 O2       0.8940  -2.3029  -0.8292   O.3       1 1      0.0000
    37 H21      0.1940  -2.6434  -1.4458   H         1 1      0.0000
    38 H22     -0.1081  -0.5512  -0.5902   H         1 1      0.0000
@<TRIPOS>BOND
     1     1     2   ar
     2     1     6   ar
     3     1    29    1
     4     2     3   ar
     5     2     7    1
     6     3     4   ar
     7     3    30    1
     8     4     5   ar
     9     4     8    1
    10     5     6   ar
    11     5     9    1
    12     6    10    1
    13     8    11    1
    14     8    12    1
    15     8    28    1
    16    11    13    1
    17    11    26    1
    18    11    27    1
    19    13    14    1
    20    14    15    1
    21    14    16    1
    22    14    31    1
    23    16    17    1
    24    16    20    2
    25    17    18    1
    26    17    19    1
    27    17    32    1
    28    20    21    1
    29    20    22    1
    30    22    23    1
    31    22    24    1
    32    22    25    1
    33    32    33    1
    34    32    34    1
    35    32    35    1
    36    13    36    1
    37    36    37    1
    38    13    38    1
@<TRIPOS>SUBSTRUCTURE
     1 1           1 GROUP             0 ****  ****    0  
@<TRIPOS>MOLECULE
Molecule Name_00001_00078
    38    38     1     0     0
SMALL
NO_CHARGES
****
Generated from the CSD

@<TRIPOS>ATOM
     1 C5      -3.9761   1.8512  -0.3042   C.ar      1 1      0.0000
     2 C4      -4.4004   0.5838  -0.7190   C.ar      1 1      0.0000
     3 C3      -3.6557  -0.5504  -0.3782   C.ar      1 1      0.0000
     4 C8      -2.4804  -0.4302   0.3796   C.ar      1 1      0.0000
     5 C7      -2.0577   0.8452   0.7845   C.ar      1 1      0.0000
     6 C6      -2.8009   1.9808   0.4440   C.ar      1 1      0.0000
     7 H4      -5.3036   0.4804  -1.3117   H         1 1      0.0000
     8 C9      -1.7128  -1.6693   0.8099   C.3       1 1      0.0000
     9 H7      -1.1380   0.9536   1.3550   H         1 1      0.0000
    10 H6      -2.4607   2.9632   0.7554   H         1 1      0.0000
    11 C10     -0.7146  -2.0846  -0.2982   C.3       1 1      0.0000
    12 H9A     -1.1644  -1.4776   1.7389   H         1 1      0.0000
    13 C11      0.4286  -1.1259  -0.4775   C.3       1 1      0.0000
    14 C12      1.4533  -1.0588   0.6675   C.3       1 1      0.0000
    15 H12A     1.9255  -2.0444   0.7842   H         1 1      0.0000
    16 C13      2.5413  -0.0086   0.5969   C.2       1 1      0.0000
    17 C14      2.1541   1.4145   0.8753   C.3       1 1      0.0000
    18 H14B     3.0429   1.9731   1.1891   H         1 1      0.0000
    19 H14A     1.4175   1.4692   1.6819   H         1 1      0.0000
    20 N        3.7631  -0.3621   0.3258   N.pl3     1 1      0.0000
    21 HN       3.8960  -1.3965   0.1997   H         1 1      0.0000
    22 C        4.9446   0.5401   0.1908   C.3       1 1      0.0000
    23 H1A      5.8260  -0.0919   0.0739   H         1 1      0.0000
    24 H1C      4.8304   1.1727  -0.6954   H         1 1      0.0000
    25 H1B      5.0550   1.1612   1.0830   H         1 1      0.0000
    26 H10A    -0.3047  -3.0844  -0.0817   H         1 1      0.0000
    27 H10B    -1.2423  -2.1860  -1.2601   H         1 1      0.0000
    28 H9B     -2.4015  -2.4980   1.0078   H         1 1      0.0000
    29 H5      -4.5510   2.7319  -0.5711   H         1 1      0.0000
    30 H3      -3.9827  -1.5314  -0.7159   H         1 1      0.0000
    31 H12B     0.8978  -0.8971   1.6060   H         1 1      0.0000
    32 C15      1.5663   2.0845  -0.4131   C.3       1 1      0.0000
    33 H15A     2.0608   1.7131  -1.3161   H         1 1      0.0000
    34 H15B     0.4904   1.9061  -0.5007   H         1 1      0.0000
    35 H15C     1.7330   3.1641  -0.3534   H         1 1      0.0000
    36 O2       1.1139  -1.4715  -1.6651   O.3       1 1      0.0000
    37 H21      0.4919  -1.4084  -2.4365   H         1 1      0.0000
    38 H22      0.0109  -0.1291  -0.6109   H         1 1      0.0000
@<TRIPOS>BOND
     1     1     2   ar
     2     1     6   ar
     3     1    29    1
     4     2     3   ar
     5     2     7    1
     6     3     4   ar
     7     3    30    1
     8     4     5   ar
     9     4     8    1
    10     5     6   ar
    11     5     9    1
    12     6    10    1
    13     8    11    1
    14     8    12    1
    15     8    28    1
    16    11    13    1
    17    11    26    1
    18    11    27    1
    19    13    14    1
    20    14    15    1
    21    14    16    1
    22    14    31    1
    23    16    17    1
    24    16    20    2
    25    17    18    1
    26    17    19    1
    27    17    32    1
    28    20    21    1
    29    20    22    1
    30    22    23    1
    31    22    24    1
    32    22    25    1
    33    32    33    1
    34    32    34    1
    35    32    35    1
    36    13    36    1
    37    36    37    1
    38    13    38    1
@<TRIPOS>SUBSTRUCTURE
     1 1           1 GROUP             0 ****  ****    0  
@<TRIPOS>MOLECULE
Molecule Name_00001_00079
    38    38     1     0     0
SMALL
NO_CHARGES
****
Generated from the CSD

@<TRIPOS>ATOM
     1 C5      -4.2331  -1.6035   0.3938   C.ar      1 1      0.0000
     2 C4      -4.5894  -0.2898   0.7190   C.ar      1 1      0.0000
     3 C3      -3.7506   0.7719   0.3635   C.ar      1 1      0.0000
     4 C8      -2.5482   0.5323  -0.3198   C.ar      1 1      0.0000
     5 C7      -2.1946  -0.7886  -0.6348   C.ar      1 1      0.0000
     6 C6      -3.0319  -1.8518  -0.2794   C.ar      1 1      0.0000
     7 H4      -5.5132  -0.0941   1.2539   H         1 1      0.0000
     8 C9      -1.6746   1.6921  -0.7686   C.3       1 1      0.0000
     9 H7      -1.2559  -0.9892  -1.1463   H         1 1      0.0000
    10 H6      -2.7451  -2.8702  -0.5208   H         1 1      0.0000
    11 C10     -0.7098   2.0997   0.3715   C.3       1 1      0.0000
    12 H9A     -1.0927   1.4138  -1.6543   H         1 1      0.0000
    13 C11      0.3529   1.0781   0.6634   C.3       1 1      0.0000
    14 C12      1.4293   0.8803  -0.4171   C.3       1 1      0.0000
    15 H12A     1.9873   1.8189  -0.5434   H         1 1      0.0000
    16 C13      2.4212  -0.2502  -0.2443   C.2       1 1      0.0000
    17 C14      3.4892  -0.0859   0.7974   C.3       1 1      0.0000
    18 H14B     3.8570  -1.0748   1.0929   H         1 1      0.0000
    19 H14A     3.0936   0.4087   1.6891   H         1 1      0.0000
    20 N        2.3106  -1.3228  -0.9713   N.pl3     1 1      0.0000
    21 HN       1.4889  -1.3186  -1.6258   H         1 1      0.0000
    22 C        3.2118  -2.5125  -0.9503   C.3       1 1      0.0000
    23 H1A      2.7674  -3.2699  -1.5975   H         1 1      0.0000
    24 H1C      4.1991  -2.2384  -1.3359   H         1 1      0.0000
    25 H1B      3.3020  -2.9057   0.0652   H         1 1      0.0000
    26 H10A    -0.2204   3.0566   0.1278   H         1 1      0.0000
    27 H10B    -1.2791   2.2885   1.2956   H         1 1      0.0000
    28 H9B     -2.2925   2.5529  -1.0469   H         1 1      0.0000
    29 H5      -4.8812  -2.4279   0.6724   H         1 1      0.0000
    30 H3      -4.0259   1.7895   0.6319   H         1 1      0.0000
    31 H12B     0.9144   0.7245  -1.3794   H         1 1      0.0000
    32 C15      4.6868   0.7479   0.2275   C.3       1 1      0.0000
    33 H15A     5.1423   0.2521  -0.6353   H         1 1      0.0000
    34 H15B     4.3691   1.7520  -0.0692   H         1 1      0.0000
    35 H15C     5.4488   0.8435   1.0066   H         1 1      0.0000
    36 O2       0.9970   1.4414   1.8686   O.3       1 1      0.0000
    37 H21      0.3323   1.4622   2.6060   H         1 1      0.0000
    38 H22     -0.1397   0.1201   0.8235   H         1 1      0.0000
@<TRIPOS>BOND
     1     1     2   ar
     2     1     6   ar
     3     1    29    1
     4     2     3   ar
     5     2     7    1
     6     3     4   ar
     7     3    30    1
     8     4     5   ar
     9     4     8    1
    10     5     6   ar
    11     5     9    1
    12     6    10    1
    13     8    11    1
    14     8    12    1
    15     8    28    1
    16    11    13    1
    17    11    26    1
    18    11    27    1
    19    13    14    1
    20    14    15    1
    21    14    16    1
    22    14    31    1
    23    16    17    1
    24    16    20    2
    25    17    18    1
    26    17    19    1
    27    17    32    1
    28    20    21    1
    29    20    22    1
    30    22    23    1
    31    22    24    1
    32    22    25    1
    33    32    33    1
    34    32    34    1
    35    32    35    1
    36    13    36    1
    37    36    37    1
    38    13    38    1
@<TRIPOS>SUBSTRUCTURE
     1 1           1 GROUP             0 ****  ****    0  
@<TRIPOS>MOLECULE
Molecule Name_00001_00080
    38    38     1     0     0
SMALL
NO_CHARGES
****
Generated from the CSD

@<TRIPOS>ATOM
     1 C5      -4.7653   1.0946  -0.9320   C.ar      1 1      0.0000
     2 C4      -3.8886   0.3658  -1.7437   C.ar      1 1      0.0000
     3 C3      -2.8035  -0.3086  -1.1738   C.ar      1 1      0.0000
     4 C8      -2.5829  -0.2616   0.2116   C.ar      1 1      0.0000
     5 C7      -3.4620   0.4782   1.0171   C.ar      1 1      0.0000
     6 C6      -4.5476   1.1539   0.4489   C.ar      1 1      0.0000
     7 H4      -4.0457   0.3292  -2.8169   H         1 1      0.0000
     8 C9      -1.4464  -1.0537   0.8366   C.3       1 1      0.0000
     9 H7      -3.2905   0.5389   2.0895   H         1 1      0.0000
    10 H6      -5.2167   1.7297   1.0800   H         1 1      0.0000
    11 C10     -0.1415  -0.2211   0.8052   C.3       1 1      0.0000
    12 H9A     -1.6854  -1.3147   1.8735   H         1 1      0.0000
    13 C11      1.0435  -0.9248   1.4042   C.3       1 1      0.0000
    14 C12      2.3777  -0.1600   1.3834   C.3       1 1      0.0000
    15 H12A     3.0954  -0.6733   2.0389   H         1 1      0.0000
    16 C13      3.0410   0.0909   0.0460   C.2       1 1      0.0000
    17 C14      3.0038   1.4895  -0.4978   C.3       1 1      0.0000
    18 H14B     3.8349   1.6237  -1.1990   H         1 1      0.0000
    19 H14A     3.1153   2.2245   0.3044   H         1 1      0.0000
    20 N        3.6345  -0.8862  -0.5738   N.pl3     1 1      0.0000
    21 HN       3.6219  -1.7989  -0.0538   H         1 1      0.0000
    22 C        4.3096  -0.8212  -1.9035   C.3       1 1      0.0000
    23 H1A      4.7957  -1.7835  -2.0699   H         1 1      0.0000
    24 H1C      3.5676  -0.6476  -2.6894   H         1 1      0.0000
    25 H1B      5.0589  -0.0259  -1.9131   H         1 1      0.0000
    26 H10A     0.1029   0.0585  -0.2324   H         1 1      0.0000
    27 H10B    -0.2909   0.7314   1.3383   H         1 1      0.0000
    28 H9B     -1.2908  -1.9937   0.2957   H         1 1      0.0000
    29 H5      -5.6051   1.6210  -1.3735   H         1 1      0.0000
    30 H3      -2.1172  -0.8614  -1.8116   H         1 1      0.0000
    31 H12B     2.2100   0.8206   1.8587   H         1 1      0.0000
    32 C15      1.6575   1.7466  -1.2565   C.3       1 1      0.0000
    33 H15A     1.4189   0.9218  -1.9350   H         1 1      0.0000
    34 H15B     0.8255   1.8822  -0.5589   H         1 1      0.0000
    35 H15C     1.7600   2.6585  -1.8521   H         1 1      0.0000
    36 O2       0.7368  -1.2434   2.7472   O.3       1 1      0.0000
    37 H21      0.0589  -1.9687   2.7688   H         1 1      0.0000
    38 H22      1.1857  -1.8592   0.8633   H         1 1      0.0000
@<TRIPOS>BOND
     1     1     2   ar
     2     1     6   ar
     3     1    29    1
     4     2     3   ar
     5     2     7    1
     6     3     4   ar
     7     3    30    1
     8     4     5   ar
     9     4     8    1
    10     5     6   ar
    11     5     9    1
    12     6    10    1
    13     8    11    1
    14     8    12    1
    15     8    28    1
    16    11    13    1
    17    11    26    1
    18    11    27    1
    19    13    14    1
    20    14    15    1
    21    14    16    1
    22    14    31    1
    23    16    17    1
    24    16    20    2
    25    17    18    1
    26    17    19    1
    27    17    32    1
    28    20    21    1
    29    20    22    1
    30    22    23    1
    31    22    24    1
    32    22    25    1
    33    32    33    1
    34    32    34    1
    35    32    35    1
    36    13    36    1
    37    36    37    1
    38    13    38    1
@<TRIPOS>SUBSTRUCTURE
     1 1           1 GROUP             0 ****  ****    0  
@<TRIPOS>MOLECULE
Molecule Name_00001_00081
    38    38     1     0     0
SMALL
NO_CHARGES
****
Generated from the CSD

@<TRIPOS>ATOM
     1 C5      -5.6673  -0.4040  -0.2561   C.ar      1 1      0.0000
     2 C4      -4.8631   0.2465  -1.1988   C.ar      1 1      0.0000
     3 C3      -3.5600   0.6291  -0.8630   C.ar      1 1      0.0000
     4 C8      -3.0475   0.3662   0.4170   C.ar      1 1      0.0000
     5 C7      -3.8634  -0.2792   1.3587   C.ar      1 1      0.0000
     6 C6      -5.1671  -0.6620   1.0249   C.ar      1 1      0.0000
     7 H4      -5.2523   0.4614  -2.1888   H         1 1      0.0000
     8 C9      -1.6082   0.7174   0.7560   C.3       1 1      0.0000
     9 H7      -3.4848  -0.4707   2.3603   H         1 1      0.0000
    10 H6      -5.7924  -1.1534   1.7634   H         1 1      0.0000
    11 C10     -0.6405  -0.1029  -0.1314   C.3       1 1      0.0000
    12 H9A     -1.4269   1.7865   0.5985   H         1 1      0.0000
    13 C11      0.8121   0.1773   0.1325   C.3       1 1      0.0000
    14 C12      1.8276  -0.6433  -0.6805   C.3       1 1      0.0000
    15 H12A     1.6874  -0.4296  -1.7495   H         1 1      0.0000
    16 C13      3.2976  -0.4986  -0.3491   C.2       1 1      0.0000
    17 C14      3.9744   0.7852  -0.7325   C.3       1 1      0.0000
    18 H14B     3.2936   1.3777  -1.3537   H         1 1      0.0000
    19 H14A     4.8808   0.5916  -1.3131   H         1 1      0.0000
    20 N        3.9181  -1.4606   0.2679   N.pl3     1 1      0.0000
    21 HN       3.3083  -2.2795   0.5153   H         1 1      0.0000
    22 C        5.3621  -1.4950   0.6441   C.3       1 1      0.0000
    23 H1A      5.6140  -2.5306   0.8768   H         1 1      0.0000
    24 H1C      5.9739  -1.1518  -0.1963   H         1 1      0.0000
    25 H1B      5.5437  -0.8681   1.5205   H         1 1      0.0000
    26 H10A    -0.8219  -1.1808   0.0087   H         1 1      0.0000
    27 H10B    -0.8486   0.0938  -1.1953   H         1 1      0.0000
    28 H9B     -1.4001   0.5075   1.8109   H         1 1      0.0000
    29 H5      -6.6794  -0.6979  -0.5144   H         1 1      0.0000
    30 H3      -2.9449   1.1474  -1.5952   H         1 1      0.0000
    31 H12B     1.5662  -1.7083  -0.5671   H         1 1      0.0000
    32 C15      4.3412   1.6140   0.5453   C.3       1 1      0.0000
    33 H15A     3.4616   1.7896   1.1722   H         1 1      0.0000
    34 H15B     5.1059   1.1089   1.1431   H         1 1      0.0000
    35 H15C     4.7349   2.5852   0.2314   H         1 1      0.0000
    36 O2       1.0507   1.5487  -0.1163   O.3       1 1      0.0000
    37 H21      0.7430   2.0845   0.6610   H         1 1      0.0000
    38 H22      1.0017  -0.0084   1.1887   H         1 1      0.0000
@<TRIPOS>BOND
     1     1     2   ar
     2     1     6   ar
     3     1    29    1
     4     2     3   ar
     5     2     7    1
     6     3     4   ar
     7     3    30    1
     8     4     5   ar
     9     4     8    1
    10     5     6   ar
    11     5     9    1
    12     6    10    1
    13     8    11    1
    14     8    12    1
    15     8    28    1
    16    11    13    1
    17    11    26    1
    18    11    27    1
    19    13    14    1
    20    14    15    1
    21    14    16    1
    22    14    31    1
    23    16    17    1
    24    16    20    2
    25    17    18    1
    26    17    19    1
    27    17    32    1
    28    20    21    1
    29    20    22    1
    30    22    23    1
    31    22    24    1
    32    22    25    1
    33    32    33    1
    34    32    34    1
    35    32    35    1
    36    13    36    1
    37    36    37    1
    38    13    38    1
@<TRIPOS>SUBSTRUCTURE
     1 1           1 GROUP             0 ****  ****    0  
@<TRIPOS>MOLECULE
Molecule Name_00001_00082
    38    38     1     0     0
SMALL
NO_CHARGES
****
Generated from the CSD

@<TRIPOS>ATOM
     1 C5      -4.9532   0.7494  -0.4710   C.ar      1 1      0.0000
     2 C4      -4.1532  -0.1102  -1.2324   C.ar      1 1      0.0000
     3 C3      -2.9855  -0.6503  -0.6831   C.ar      1 1      0.0000
     4 C8      -2.6052  -0.3375   0.6313   C.ar      1 1      0.0000
     5 C7      -3.4087   0.5315   1.3850   C.ar      1 1      0.0000
     6 C6      -4.5766   1.0733   0.8371   C.ar      1 1      0.0000
     7 H4      -4.4341  -0.3525  -2.2523   H         1 1      0.0000
     8 C9      -1.3758  -0.9822   1.2501   C.3       1 1      0.0000
     9 H7      -3.1143   0.7976   2.3978   H         1 1      0.0000
    10 H6      -5.1866   1.7507   1.4259   H         1 1      0.0000
    11 C10     -0.1147  -0.1512   0.9097   C.3       1 1      0.0000
    12 H9A     -1.4840  -1.0483   2.3384   H         1 1      0.0000
    13 C11      0.2757  -0.2046  -0.5404   C.3       1 1      0.0000
    14 C12      1.5035   0.6258  -0.9511   C.3       1 1      0.0000
    15 H12A     1.3151   1.6834  -0.7185   H         1 1      0.0000
    16 C13      2.8532   0.2408  -0.3838   C.2       1 1      0.0000
    17 C14      4.0086   1.1607  -0.6515   C.3       1 1      0.0000
    18 H14B     3.9322   1.5438  -1.6752   H         1 1      0.0000
    19 H14A     4.9608   0.6307  -0.5583   H         1 1      0.0000
    20 N        2.9699  -0.8423   0.3264   N.pl3     1 1      0.0000
    21 HN       2.0694  -1.3636   0.4708   H         1 1      0.0000
    22 C        4.2224  -1.3812   0.9337   C.3       1 1      0.0000
    23 H1A      3.9437  -2.2353   1.5525   H         1 1      0.0000
    24 H1C      4.9063  -1.7112   0.1451   H         1 1      0.0000
    25 H1B      4.7041  -0.6213   1.5538   H         1 1      0.0000
    26 H10A    -0.2689   0.9023   1.1940   H         1 1      0.0000
    27 H10B     0.7377  -0.4969   1.5161   H         1 1      0.0000
    28 H9B     -1.2492  -2.0043   0.8765   H         1 1      0.0000
    29 H5      -5.8571   1.1718  -0.8974   H         1 1      0.0000
    30 H3      -2.3601  -1.3062  -1.2848   H         1 1      0.0000
    31 H12B     1.5831   0.5864  -2.0500   H         1 1      0.0000
    32 C15      3.9869   2.3713   0.3427   C.3       1 1      0.0000
    33 H15A     3.0686   2.9571   0.2369   H         1 1      0.0000
    34 H15B     4.0751   2.0371   1.3809   H         1 1      0.0000
    35 H15C     4.8352   3.0244   0.1176   H         1 1      0.0000
    36 O2       0.5193  -1.5544  -0.8838   O.3       1 1      0.0000
    37 H21     -0.3382  -2.0552  -0.8868   H         1 1      0.0000
    38 H22     -0.5734   0.1416  -1.1279   H         1 1      0.0000
@<TRIPOS>BOND
     1     1     2   ar
     2     1     6   ar
     3     1    29    1
     4     2     3   ar
     5     2     7    1
     6     3     4   ar
     7     3    30    1
     8     4     5   ar
     9     4     8    1
    10     5     6   ar
    11     5     9    1
    12     6    10    1
    13     8    11    1
    14     8    12    1
    15     8    28    1
    16    11    13    1
    17    11    26    1
    18    11    27    1
    19    13    14    1
    20    14    15    1
    21    14    16    1
    22    14    31    1
    23    16    17    1
    24    16    20    2
    25    17    18    1
    26    17    19    1
    27    17    32    1
    28    20    21    1
    29    20    22    1
    30    22    23    1
    31    22    24    1
    32    22    25    1
    33    32    33    1
    34    32    34    1
    35    32    35    1
    36    13    36    1
    37    36    37    1
    38    13    38    1
@<TRIPOS>SUBSTRUCTURE
     1 1           1 GROUP             0 ****  ****    0  
@<TRIPOS>MOLECULE
Molecule Name_00001_00083
    38    38     1     0     0
SMALL
NO_CHARGES
****
Generated from the CSD

@<TRIPOS>ATOM
     1 C5      -4.9935   0.8053  -0.3942   C.ar      1 1      0.0000
     2 C4      -4.1152   0.2217  -1.3144   C.ar      1 1      0.0000
     3 C3      -2.9598  -0.4268  -0.8654   C.ar      1 1      0.0000
     4 C8      -2.6701  -0.4988   0.5061   C.ar      1 1      0.0000
     5 C7      -3.5519   0.0960   1.4213   C.ar      1 1      0.0000
     6 C6      -4.7076   0.7457   0.9742   C.ar      1 1      0.0000
     7 H4      -4.3258   0.2783  -2.3775   H         1 1      0.0000
     8 C9      -1.4529  -1.2661   0.9956   C.3       1 1      0.0000
     9 H7      -3.3284   0.0645   2.4854   H         1 1      0.0000
    10 H6      -5.3787   1.2094   1.6899   H         1 1      0.0000
    11 C10     -0.2100  -0.3429   0.9946   C.3       1 1      0.0000
    12 H9A     -1.6214  -1.6467   2.0092   H         1 1      0.0000
    13 C11      0.2660   0.0346  -0.3798   C.3       1 1      0.0000
    14 C12      1.4797   0.9767  -0.4504   C.3       1 1      0.0000
    15 H12A     1.2339   1.9171   0.0627   H         1 1      0.0000
    16 C13      2.8090   0.4757   0.0726   C.2       1 1      0.0000
    17 C14      3.9385   1.4605   0.1594   C.3       1 1      0.0000
    18 H14B     4.6668   1.1065   0.8975   H         1 1      0.0000
    19 H14A     3.5786   2.4415   0.4822   H         1 1      0.0000
    20 N        2.9295  -0.7635   0.4480   N.pl3     1 1      0.0000
    21 HN       2.0448  -1.3252   0.3752   H         1 1      0.0000
    22 C        4.1661  -1.4257   0.9585   C.3       1 1      0.0000
    23 H1A      3.8879  -2.4285   1.2855   H         1 1      0.0000
    24 H1C      4.9079  -1.4973   0.1566   H         1 1      0.0000
    25 H1B      4.5785  -0.8666   1.8019   H         1 1      0.0000
    26 H10A    -0.4245   0.5794   1.5583   H         1 1      0.0000
    27 H10B     0.6194  -0.8292   1.5325   H         1 1      0.0000
    28 H9B     -1.2620  -2.1332   0.3538   H         1 1      0.0000
    29 H5      -5.8879   1.3118  -0.7416   H         1 1      0.0000
    30 H3      -2.2735  -0.8658  -1.5862   H         1 1      0.0000
    31 H12B     1.6247   1.2588  -1.5063   H         1 1      0.0000
    32 C15      4.6530   1.5984  -1.2280   C.3       1 1      0.0000
    33 H15A     5.0740   0.6429  -1.5559   H         1 1      0.0000
    34 H15B     3.9654   1.9638  -1.9967   H         1 1      0.0000
    35 H15C     5.4730   2.3158  -1.1296   H         1 1      0.0000
    36 O2       0.5856  -1.1521  -1.0791   O.3       1 1      0.0000
    37 H21     -0.2485  -1.6505  -1.2839   H         1 1      0.0000
    38 H22     -0.5612   0.5160  -0.8994   H         1 1      0.0000
@<TRIPOS>BOND
     1     1     2   ar
     2     1     6   ar
     3     1    29    1
     4     2     3   ar
     5     2     7    1
     6     3     4   ar
     7     3    30    1
     8     4     5   ar
     9     4     8    1
    10     5     6   ar
    11     5     9    1
    12     6    10    1
    13     8    11    1
    14     8    12    1
    15     8    28    1
    16    11    13    1
    17    11    26    1
    18    11    27    1
    19    13    14    1
    20    14    15    1
    21    14    16    1
    22    14    31    1
    23    16    17    1
    24    16    20    2
    25    17    18    1
    26    17    19    1
    27    17    32    1
    28    20    21    1
    29    20    22    1
    30    22    23    1
    31    22    24    1
    32    22    25    1
    33    32    33    1
    34    32    34    1
    35    32    35    1
    36    13    36    1
    37    36    37    1
    38    13    38    1
@<TRIPOS>SUBSTRUCTURE
     1 1           1 GROUP             0 ****  ****    0  
@<TRIPOS>MOLECULE
Molecule Name_00001_00084
    38    38     1     0     0
SMALL
NO_CHARGES
****
Generated from the CSD

@<TRIPOS>ATOM
     1 C5      -4.8631   0.6440  -0.6558   C.ar      1 1      0.0000
     2 C4      -3.8875   1.6137  -0.3982   C.ar      1 1      0.0000
     3 C3      -2.5581   1.2315  -0.1894   C.ar      1 1      0.0000
     4 C8      -2.1900  -0.1222  -0.2355   C.ar      1 1      0.0000
     5 C7      -3.1759  -1.0886  -0.4863   C.ar      1 1      0.0000
     6 C6      -4.5062  -0.7084  -0.6947   C.ar      1 1      0.0000
     7 H4      -4.1628   2.6625  -0.3529   H         1 1      0.0000
     8 C9      -0.7337  -0.5287  -0.0804   C.3       1 1      0.0000
     9 H7      -2.9070  -2.1424  -0.5046   H         1 1      0.0000
    10 H6      -5.2622  -1.4645  -0.8800   H         1 1      0.0000
    11 C10     -0.3879  -0.6951   1.4195   C.3       1 1      0.0000
    12 H9A     -0.5408  -1.4716  -0.6040   H         1 1      0.0000
    13 C11      1.0290  -1.1272   1.6726   C.3       1 1      0.0000
    14 C12      2.1252  -0.0885   1.3808   C.3       1 1      0.0000
    15 H12A     3.0729  -0.4356   1.8162   H         1 1      0.0000
    16 C13      2.3733   0.3087  -0.0587   C.2       1 1      0.0000
    17 C14      2.8616   1.7034  -0.3216   C.3       1 1      0.0000
    18 H14B     2.3535   2.3954   0.3593   H         1 1      0.0000
    19 H14A     2.6362   2.0105  -1.3468   H         1 1      0.0000
    20 N        2.1837  -0.5581  -1.0095   N.pl3     1 1      0.0000
    21 HN       1.8862  -1.5085  -0.6750   H         1 1      0.0000
    22 C        2.3525  -0.3277  -2.4746   C.3       1 1      0.0000
    23 H1A      2.2235  -1.2894  -2.9730   H         1 1      0.0000
    24 H1C      1.5902   0.3722  -2.8314   H         1 1      0.0000
    25 H1B      3.3501   0.0641  -2.6873   H         1 1      0.0000
    26 H10A    -0.5684   0.2507   1.9556   H         1 1      0.0000
    27 H10B    -1.0670  -1.4288   1.8823   H         1 1      0.0000
    28 H9B     -0.0752   0.2263  -0.5236   H         1 1      0.0000
    29 H5      -5.8952   0.9391  -0.8143   H         1 1      0.0000
    30 H3      -1.8069   1.9886   0.0249   H         1 1      0.0000
    31 H12B     1.8755   0.8289   1.9388   H         1 1      0.0000
    32 C15      4.4061   1.7984  -0.0769   C.3       1 1      0.0000
    33 H15A     4.6614   1.5500   0.9578   H         1 1      0.0000
    34 H15B     4.9582   1.1323  -0.7467   H         1 1      0.0000
    35 H15C     4.7285   2.8259  -0.2698   H         1 1      0.0000
    36 O2       1.1376  -1.5166   3.0276   O.3       1 1      0.0000
    37 H21      0.5146  -2.2687   3.2068   H         1 1      0.0000
    38 H22      1.2263  -2.0031   1.0565   H         1 1      0.0000
@<TRIPOS>BOND
     1     1     2   ar
     2     1     6   ar
     3     1    29    1
     4     2     3   ar
     5     2     7    1
     6     3     4   ar
     7     3    30    1
     8     4     5   ar
     9     4     8    1
    10     5     6   ar
    11     5     9    1
    12     6    10    1
    13     8    11    1
    14     8    12    1
    15     8    28    1
    16    11    13    1
    17    11    26    1
    18    11    27    1
    19    13    14    1
    20    14    15    1
    21    14    16    1
    22    14    31    1
    23    16    17    1
    24    16    20    2
    25    17    18    1
    26    17    19    1
    27    17    32    1
    28    20    21    1
    29    20    22    1
    30    22    23    1
    31    22    24    1
    32    22    25    1
    33    32    33    1
    34    32    34    1
    35    32    35    1
    36    13    36    1
    37    36    37    1
    38    13    38    1
@<TRIPOS>SUBSTRUCTURE
     1 1           1 GROUP             0 ****  ****    0  
@<TRIPOS>MOLECULE
Molecule Name_00001_00085
    38    38     1     0     0
SMALL
NO_CHARGES
****
Generated from the CSD

@<TRIPOS>ATOM
     1 C5      -4.6430   0.9007  -0.6263   C.ar      1 1      0.0000
     2 C4      -3.6099   1.7931  -0.3181   C.ar      1 1      0.0000
     3 C3      -2.3086   1.3178  -0.1234   C.ar      1 1      0.0000
     4 C8      -2.0263  -0.0526  -0.2343   C.ar      1 1      0.0000
     5 C7      -3.0695  -0.9414  -0.5357   C.ar      1 1      0.0000
     6 C6      -4.3718  -0.4680  -0.7301   C.ar      1 1      0.0000
     7 H4      -3.8189   2.8537  -0.2224   H         1 1      0.0000
     8 C9      -0.5997  -0.5576  -0.0940   C.3       1 1      0.0000
     9 H7      -2.8675  -2.0080  -0.6046   H         1 1      0.0000
    10 H6      -5.1727  -1.1649  -0.9548   H         1 1      0.0000
    11 C10     -0.2750  -0.8182   1.3971   C.3       1 1      0.0000
    12 H9A     -0.4631  -1.4842  -0.6625   H         1 1      0.0000
    13 C11      1.1101  -1.3509   1.6339   C.3       1 1      0.0000
    14 C12      2.2715  -0.3708   1.3973   C.3       1 1      0.0000
    15 H12A     3.1925  -0.7979   1.8186   H         1 1      0.0000
    16 C13      2.5537   0.0794  -0.0202   C.2       1 1      0.0000
    17 C14      3.1308   1.4516  -0.2127   C.3       1 1      0.0000
    18 H14B     3.6482   1.4908  -1.1777   H         1 1      0.0000
    19 H14A     3.8574   1.6843   0.5710   H         1 1      0.0000
    20 N        2.3163  -0.7264  -1.0129   N.pl3     1 1      0.0000
    21 HN       1.9572  -1.6711  -0.7264   H         1 1      0.0000
    22 C        2.5091  -0.4362  -2.4643   C.3       1 1      0.0000
    23 H1A      2.3230  -1.3624  -3.0097   H         1 1      0.0000
    24 H1C      1.7948   0.3271  -2.7893   H         1 1      0.0000
    25 H1B      3.5308  -0.0984  -2.6540   H         1 1      0.0000
    26 H10A    -0.3991   0.1099   1.9782   H         1 1      0.0000
    27 H10B    -1.0021  -1.5291   1.8210   H         1 1      0.0000
    28 H9B      0.1081   0.1749  -0.4974   H         1 1      0.0000
    29 H5      -5.6533   1.2679  -0.7739   H         1 1      0.0000
    30 H3      -1.5127   2.0145   0.1304   H         1 1      0.0000
    31 H12B     2.0764   0.5325   1.9986   H         1 1      0.0000
    32 C15      1.9942   2.5298  -0.2060   C.3       1 1      0.0000
    33 H15A     1.2774   2.3579  -1.0148   H         1 1      0.0000
    34 H15B     1.4565   2.5373   0.7470   H         1 1      0.0000
    35 H15C     2.4456   3.5152  -0.3548   H         1 1      0.0000
    36 O2       1.1848  -1.8118   2.9686   O.3       1 1      0.0000
    37 H21      0.5144  -2.5308   3.1085   H         1 1      0.0000
    38 H22      1.2558  -2.2066   0.9764   H         1 1      0.0000
@<TRIPOS>BOND
     1     1     2   ar
     2     1     6   ar
     3     1    29    1
     4     2     3   ar
     5     2     7    1
     6     3     4   ar
     7     3    30    1
     8     4     5   ar
     9     4     8    1
    10     5     6   ar
    11     5     9    1
    12     6    10    1
    13     8    11    1
    14     8    12    1
    15     8    28    1
    16    11    13    1
    17    11    26    1
    18    11    27    1
    19    13    14    1
    20    14    15    1
    21    14    16    1
    22    14    31    1
    23    16    17    1
    24    16    20    2
    25    17    18    1
    26    17    19    1
    27    17    32    1
    28    20    21    1
    29    20    22    1
    30    22    23    1
    31    22    24    1
    32    22    25    1
    33    32    33    1
    34    32    34    1
    35    32    35    1
    36    13    36    1
    37    36    37    1
    38    13    38    1
@<TRIPOS>SUBSTRUCTURE
     1 1           1 GROUP             0 ****  ****    0  
@<TRIPOS>MOLECULE
Molecule Name_00001_00086
    38    38     1     0     0
SMALL
NO_CHARGES
****
Generated from the CSD

@<TRIPOS>ATOM
     1 C5      -4.8338   1.3461  -0.6835   C.ar      1 1      0.0000
     2 C4      -5.0557  -0.0301  -0.5589   C.ar      1 1      0.0000
     3 C3      -3.9984  -0.8824  -0.2233   C.ar      1 1      0.0000
     4 C8      -2.7096  -0.3693  -0.0091   C.ar      1 1      0.0000
     5 C7      -2.4942   1.0107  -0.1440   C.ar      1 1      0.0000
     6 C6      -3.5503   1.8647  -0.4803   C.ar      1 1      0.0000
     7 H4      -6.0467  -0.4381  -0.7299   H         1 1      0.0000
     8 C9      -1.5791  -1.2871   0.4261   C.3       1 1      0.0000
     9 H7      -1.4960   1.4182  -0.0003   H         1 1      0.0000
    10 H6      -3.3710   2.9294  -0.5900   H         1 1      0.0000
    11 C10     -0.2708  -0.4751   0.5870   C.3       1 1      0.0000
    12 H9A     -1.8239  -1.7730   1.3772   H         1 1      0.0000
    13 C11      0.9087  -1.3011   1.0170   C.3       1 1      0.0000
    14 C12      2.2370  -0.5506   1.2115   C.3       1 1      0.0000
    15 H12A     2.9495  -1.2104   1.7265   H         1 1      0.0000
    16 C13      2.9169   0.0340  -0.0081   C.2       1 1      0.0000
    17 C14      2.4012   1.3426  -0.5322   C.3       1 1      0.0000
    18 H14B     1.3100   1.3624  -0.4357   H         1 1      0.0000
    19 H14A     2.6500   1.4661  -1.5900   H         1 1      0.0000
    20 N        3.9249  -0.5876  -0.5455   N.pl3     1 1      0.0000
    21 HN       4.2061  -1.4678  -0.0459   H         1 1      0.0000
    22 C        4.6882  -0.1696  -1.7583   C.3       1 1      0.0000
    23 H1A      5.5328  -0.8519  -1.8634   H         1 1      0.0000
    24 H1C      4.0488  -0.2430  -2.6439   H         1 1      0.0000
    25 H1B      5.0555   0.8532  -1.6448   H         1 1      0.0000
    26 H10A    -0.0206   0.0290  -0.3604   H         1 1      0.0000
    27 H10B    -0.4188   0.3342   1.3197   H         1 1      0.0000
    28 H9B     -1.4248  -2.0824  -0.3114   H         1 1      0.0000
    29 H5      -5.6524   2.0076  -0.9474   H         1 1      0.0000
    30 H3      -4.1740  -1.9529  -0.1422   H         1 1      0.0000
    31 H12B     2.0550   0.2767   1.9172   H         1 1      0.0000
    32 C15      3.0014   2.5356   0.2868   C.3       1 1      0.0000
    33 H15A     2.7245   2.4723   1.3437   H         1 1      0.0000
    34 H15B     4.0924   2.5648   0.2086   H         1 1      0.0000
    35 H15C     2.6019   3.4716  -0.1143   H         1 1      0.0000
    36 O2       0.5802  -1.9421   2.2337   O.3       1 1      0.0000
    37 H21     -0.1017  -2.6438   2.0646   H         1 1      0.0000
    38 H22      1.0680  -2.0727   0.2652   H         1 1      0.0000
@<TRIPOS>BOND
     1     1     2   ar
     2     1     6   ar
     3     1    29    1
     4     2     3   ar
     5     2     7    1
     6     3     4   ar
     7     3    30    1
     8     4     5   ar
     9     4     8    1
    10     5     6   ar
    11     5     9    1
    12     6    10    1
    13     8    11    1
    14     8    12    1
    15     8    28    1
    16    11    13    1
    17    11    26    1
    18    11    27    1
    19    13    14    1
    20    14    15    1
    21    14    16    1
    22    14    31    1
    23    16    17    1
    24    16    20    2
    25    17    18    1
    26    17    19    1
    27    17    32    1
    28    20    21    1
    29    20    22    1
    30    22    23    1
    31    22    24    1
    32    22    25    1
    33    32    33    1
    34    32    34    1
    35    32    35    1
    36    13    36    1
    37    36    37    1
    38    13    38    1
@<TRIPOS>SUBSTRUCTURE
     1 1           1 GROUP             0 ****  ****    0  
@<TRIPOS>MOLECULE
Molecule Name_00001_00087
    38    38     1     0     0
SMALL
NO_CHARGES
****
Generated from the CSD

@<TRIPOS>ATOM
     1 C5      -4.8296   0.7167   1.1450   C.ar      1 1      0.0000
     2 C4      -4.9154   0.7387  -0.2517   C.ar      1 1      0.0000
     3 C3      -3.7932   0.4286  -1.0273   C.ar      1 1      0.0000
     4 C8      -2.5748   0.0939  -0.4162   C.ar      1 1      0.0000
     5 C7      -2.4952   0.0822   0.9847   C.ar      1 1      0.0000
     6 C6      -3.6163   0.3927   1.7622   C.ar      1 1      0.0000
     7 H4      -5.8507   1.0036  -0.7342   H         1 1      0.0000
     8 C9      -1.3777  -0.3129  -1.2597   C.3       1 1      0.0000
     9 H7      -1.5514  -0.1560   1.4702   H         1 1      0.0000
    10 H6      -3.5417   0.3885   2.8448   H         1 1      0.0000
    11 C10     -0.1679  -0.6247  -0.3455   C.3       1 1      0.0000
    12 H9A     -1.6152  -1.1971  -1.8616   H         1 1      0.0000
    13 C11      1.0687  -1.0380  -1.0928   C.3       1 1      0.0000
    14 C12      2.3225  -1.3124  -0.2454   C.3       1 1      0.0000
    15 H12A     3.0752  -1.8131  -0.8706   H         1 1      0.0000
    16 C13      2.9812  -0.1466   0.4609   C.2       1 1      0.0000
    17 C14      3.7251   0.8476  -0.3823   C.3       1 1      0.0000
    18 H14B     4.2582   0.3153  -1.1778   H         1 1      0.0000
    19 H14A     4.4626   1.3925   0.2139   H         1 1      0.0000
    20 N        2.8680  -0.0257   1.7508   N.pl3     1 1      0.0000
    21 HN       2.2804  -0.7689   2.2046   H         1 1      0.0000
    22 C        3.4723   1.0393   2.6042   C.3       1 1      0.0000
    23 H1A      3.0858   0.9055   3.6155   H         1 1      0.0000
    24 H1C      4.5620   0.9344   2.6144   H         1 1      0.0000
    25 H1B      3.1944   2.0292   2.2340   H         1 1      0.0000
    26 H10A     0.0730   0.2538   0.2746   H         1 1      0.0000
    27 H10B    -0.4313  -1.4230   0.3667   H         1 1      0.0000
    28 H9B     -1.1093   0.4885  -1.9569   H         1 1      0.0000
    29 H5      -5.6983   0.9607   1.7475   H         1 1      0.0000
    30 H3      -3.8622   0.4616  -2.1124   H         1 1      0.0000
    31 H12B     2.0523  -2.0550   0.5234   H         1 1      0.0000
    32 C15      2.7295   1.8652  -1.0361   C.3       1 1      0.0000
    33 H15A     2.4304   1.5420  -2.0381   H         1 1      0.0000
    34 H15B     1.8317   1.9949  -0.4242   H         1 1      0.0000
    35 H15C     3.2285   2.8346  -1.1260   H         1 1      0.0000
    36 O2       0.7696  -2.2059  -1.8318   O.3       1 1      0.0000
    37 H21      0.4009  -1.9515  -2.7180   H         1 1      0.0000
    38 H22      1.3107  -0.2472  -1.8013   H         1 1      0.0000
@<TRIPOS>BOND
     1     1     2   ar
     2     1     6   ar
     3     1    29    1
     4     2     3   ar
     5     2     7    1
     6     3     4   ar
     7     3    30    1
     8     4     5   ar
     9     4     8    1
    10     5     6   ar
    11     5     9    1
    12     6    10    1
    13     8    11    1
    14     8    12    1
    15     8    28    1
    16    11    13    1
    17    11    26    1
    18    11    27    1
    19    13    14    1
    20    14    15    1
    21    14    16    1
    22    14    31    1
    23    16    17    1
    24    16    20    2
    25    17    18    1
    26    17    19    1
    27    17    32    1
    28    20    21    1
    29    20    22    1
    30    22    23    1
    31    22    24    1
    32    22    25    1
    33    32    33    1
    34    32    34    1
    35    32    35    1
    36    13    36    1
    37    36    37    1
    38    13    38    1
@<TRIPOS>SUBSTRUCTURE
     1 1           1 GROUP             0 ****  ****    0  
@<TRIPOS>MOLECULE
Molecule Name_00001_00088
    38    38     1     0     0
SMALL
NO_CHARGES
****
Generated from the CSD

@<TRIPOS>ATOM
     1 C5      -5.0222   0.6688   1.0375   C.ar      1 1      0.0000
     2 C4      -5.1108   0.4582  -0.3432   C.ar      1 1      0.0000
     3 C3      -3.9715   0.0992  -1.0714   C.ar      1 1      0.0000
     4 C8      -2.7331  -0.0527  -0.4285   C.ar      1 1      0.0000
     5 C7      -2.6515   0.1683   0.9548   C.ar      1 1      0.0000
     6 C6      -3.7897   0.5281   1.6848   C.ar      1 1      0.0000
     7 H4      -6.0619   0.5805  -0.8513   H         1 1      0.0000
     8 C9      -1.5129  -0.5130  -1.2089   C.3       1 1      0.0000
     9 H7      -1.6937   0.0734   1.4614   H         1 1      0.0000
    10 H6      -3.7139   0.7044   2.7529   H         1 1      0.0000
    11 C10     -0.2843  -0.5938  -0.2704   C.3       1 1      0.0000
    12 H9A     -1.6927  -1.4966  -1.6569   H         1 1      0.0000
    13 C11      0.9758  -1.0425  -0.9553   C.3       1 1      0.0000
    14 C12      2.2458  -1.0945  -0.0893   C.3       1 1      0.0000
    15 H12A     3.0290  -1.6405  -0.6339   H         1 1      0.0000
    16 C13      2.8276   0.2103   0.4114   C.2       1 1      0.0000
    17 C14      3.5041   1.1004  -0.5901   C.3       1 1      0.0000
    18 H14B     3.5049   2.1290  -0.2128   H         1 1      0.0000
    19 H14A     2.9716   1.0905  -1.5454   H         1 1      0.0000
    20 N        2.7080   0.5313   1.6659   N.pl3     1 1      0.0000
    21 HN       2.1707  -0.1646   2.2408   H         1 1      0.0000
    22 C        3.2423   1.7574   2.3288   C.3       1 1      0.0000
    23 H1A      2.8664   1.7647   3.3528   H         1 1      0.0000
    24 H1C      4.3365   1.7258   2.3431   H         1 1      0.0000
    25 H1B      2.9000   2.6541   1.8065   H         1 1      0.0000
    26 H10A    -0.1008   0.3874   0.1964   H         1 1      0.0000
    27 H10B    -0.4942  -1.2812   0.5646   H         1 1      0.0000
    28 H9B     -1.2982   0.1802  -2.0297   H         1 1      0.0000
    29 H5      -5.9044   0.9508   1.6027   H         1 1      0.0000
    30 H3      -4.0437  -0.0488  -2.1467   H         1 1      0.0000
    31 H12B     2.0255  -1.7184   0.7926   H         1 1      0.0000
    32 C15      4.9860   0.6448  -0.8151   C.3       1 1      0.0000
    33 H15A     5.5636   0.6954   0.1131   H         1 1      0.0000
    34 H15B     5.0350  -0.3759  -1.2064   H         1 1      0.0000
    35 H15C     5.4518   1.3157  -1.5429   H         1 1      0.0000
    36 O2       0.7530  -2.3315  -1.4920   O.3       1 1      0.0000
    37 H21      0.0912  -2.2729  -2.2300   H         1 1      0.0000
    38 H22      1.1650  -0.3632  -1.7852   H         1 1      0.0000
@<TRIPOS>BOND
     1     1     2   ar
     2     1     6   ar
     3     1    29    1
     4     2     3   ar
     5     2     7    1
     6     3     4   ar
     7     3    30    1
     8     4     5   ar
     9     4     8    1
    10     5     6   ar
    11     5     9    1
    12     6    10    1
    13     8    11    1
    14     8    12    1
    15     8    28    1
    16    11    13    1
    17    11    26    1
    18    11    27    1
    19    13    14    1
    20    14    15    1
    21    14    16    1
    22    14    31    1
    23    16    17    1
    24    16    20    2
    25    17    18    1
    26    17    19    1
    27    17    32    1
    28    20    21    1
    29    20    22    1
    30    22    23    1
    31    22    24    1
    32    22    25    1
    33    32    33    1
    34    32    34    1
    35    32    35    1
    36    13    36    1
    37    36    37    1
    38    13    38    1
@<TRIPOS>SUBSTRUCTURE
     1 1           1 GROUP             0 ****  ****    0  
@<TRIPOS>MOLECULE
Molecule Name_00001_00089
    38    38     1     0     0
SMALL
NO_CHARGES
****
Generated from the CSD

@<TRIPOS>ATOM
     1 C5      -4.7806   0.5482  -1.1115   C.ar      1 1      0.0000
     2 C4      -4.7401  -0.1343   0.1096   C.ar      1 1      0.0000
     3 C3      -3.5351  -0.2419   0.8121   C.ar      1 1      0.0000
     4 C8      -2.3592   0.3304   0.3023   C.ar      1 1      0.0000
     5 C7      -2.4070   1.0059  -0.9267   C.ar      1 1      0.0000
     6 C6      -3.6111   1.1141  -1.6311   C.ar      1 1      0.0000
     7 H4      -5.6419  -0.5871   0.5089   H         1 1      0.0000
     8 C9      -1.0677   0.2748   1.1016   C.3       1 1      0.0000
     9 H7      -1.4986   1.4365  -1.3421   H         1 1      0.0000
    10 H6      -3.6354   1.6317  -2.5846   H         1 1      0.0000
    11 C10     -0.3154  -1.0443   0.8001   C.3       1 1      0.0000
    12 H9A     -0.4242   1.1252   0.8504   H         1 1      0.0000
    13 C11      0.9798  -1.1904   1.5479   C.3       1 1      0.0000
    14 C12      2.0602  -0.1339   1.2611   C.3       1 1      0.0000
    15 H12A     2.8560  -0.2213   2.0143   H         1 1      0.0000
    16 C13      2.6969  -0.1124  -0.1121   C.2       1 1      0.0000
    17 C14      1.9239   0.5287  -1.2277   C.3       1 1      0.0000
    18 H14B     0.8607   0.2923  -1.1091   H         1 1      0.0000
    19 H14A     2.2495   0.1468  -2.1995   H         1 1      0.0000
    20 N        3.8830  -0.6180  -0.2818   N.pl3     1 1      0.0000
    21 HN       4.3238  -0.9904   0.5960   H         1 1      0.0000
    22 C        4.6417  -0.7045  -1.5644   C.3       1 1      0.0000
    23 H1A      5.6391  -1.0782  -1.3288   H         1 1      0.0000
    24 H1C      4.1433  -1.4019  -2.2453   H         1 1      0.0000
    25 H1B      4.7202   0.2814  -2.0290   H         1 1      0.0000
    26 H10A    -0.9578  -1.9078   1.0370   H         1 1      0.0000
    27 H10B    -0.1084  -1.1201  -0.2793   H         1 1      0.0000
    28 H9B     -1.2778   0.3361   2.1751   H         1 1      0.0000
    29 H5      -5.7139   0.6291  -1.6590   H         1 1      0.0000
    30 H3      -3.5068  -0.7862   1.7535   H         1 1      0.0000
    31 H12B     1.6132   0.8589   1.4341   H         1 1      0.0000
    32 C15      2.1013   2.0848  -1.1935   C.3       1 1      0.0000
    33 H15A     1.7333   2.5071  -0.2533   H         1 1      0.0000
    34 H15B     3.1496   2.3703  -1.3226   H         1 1      0.0000
    35 H15C     1.5218   2.5212  -2.0124   H         1 1      0.0000
    36 O2       0.6961  -1.1686   2.9330   O.3       1 1      0.0000
    37 H21      0.0861  -1.9192   3.1578   H         1 1      0.0000
    38 H22      1.3960  -2.1676   1.3075   H         1 1      0.0000
@<TRIPOS>BOND
     1     1     2   ar
     2     1     6   ar
     3     1    29    1
     4     2     3   ar
     5     2     7    1
     6     3     4   ar
     7     3    30    1
     8     4     5   ar
     9     4     8    1
    10     5     6   ar
    11     5     9    1
    12     6    10    1
    13     8    11    1
    14     8    12    1
    15     8    28    1
    16    11    13    1
    17    11    26    1
    18    11    27    1
    19    13    14    1
    20    14    15    1
    21    14    16    1
    22    14    31    1
    23    16    17    1
    24    16    20    2
    25    17    18    1
    26    17    19    1
    27    17    32    1
    28    20    21    1
    29    20    22    1
    30    22    23    1
    31    22    24    1
    32    22    25    1
    33    32    33    1
    34    32    34    1
    35    32    35    1
    36    13    36    1
    37    36    37    1
    38    13    38    1
@<TRIPOS>SUBSTRUCTURE
     1 1           1 GROUP             0 ****  ****    0  
@<TRIPOS>MOLECULE
Molecule Name_00001_00090
    38    38     1     0     0
SMALL
NO_CHARGES
****
Generated from the CSD

@<TRIPOS>ATOM
     1 C5      -4.7859   0.7394   1.0263   C.ar      1 1      0.0000
     2 C4      -4.6620   0.4919  -0.3456   C.ar      1 1      0.0000
     3 C3      -3.4661  -0.0209  -0.8595   C.ar      1 1      0.0000
     4 C8      -2.3827  -0.2913  -0.0091   C.ar      1 1      0.0000
     5 C7      -2.5127  -0.0326   1.3639   C.ar      1 1      0.0000
     6 C6      -3.7076   0.4810   1.8797   C.ar      1 1      0.0000
     7 H4      -5.4909   0.7046  -1.0129   H         1 1      0.0000
     8 C9      -1.1109  -0.9159  -0.5589   C.3       1 1      0.0000
     9 H7      -1.6736  -0.2190   2.0305   H         1 1      0.0000
    10 H6      -3.7947   0.6850   2.9421   H         1 1      0.0000
    11 C10     -0.1622   0.1898  -1.0828   C.3       1 1      0.0000
    12 H9A     -0.5999  -1.4938   0.2191   H         1 1      0.0000
    13 C11      1.1279  -0.3335  -1.6484   C.3       1 1      0.0000
    14 C12      2.0665  -1.0522  -0.6646   C.3       1 1      0.0000
    15 H12A     2.8500  -1.5735  -1.2325   H         1 1      0.0000
    16 C13      2.7251  -0.2353   0.4265   C.2       1 1      0.0000
    17 C14      3.8161   0.7134   0.0233   C.3       1 1      0.0000
    18 H14B     4.4267   0.2465  -0.7576   H         1 1      0.0000
    19 H14A     4.4680   0.9433   0.8708   H         1 1      0.0000
    20 N        2.3211  -0.3564   1.6567   N.pl3     1 1      0.0000
    21 HN       1.5189  -1.0225   1.7846   H         1 1      0.0000
    22 C        2.8739   0.3472   2.8514   C.3       1 1      0.0000
    23 H1A      2.2332   0.1023   3.6997   H         1 1      0.0000
    24 H1C      3.8917  -0.0028   3.0514   H         1 1      0.0000
    25 H1B      2.8738   1.4282   2.6923   H         1 1      0.0000
    26 H10A    -0.6698   0.7865  -1.8578   H         1 1      0.0000
    27 H10B     0.0714   0.8989  -0.2726   H         1 1      0.0000
    28 H9B     -1.3452  -1.6097  -1.3738   H         1 1      0.0000
    29 H5      -5.7116   1.1406   1.4254   H         1 1      0.0000
    30 H3      -3.3708  -0.1974  -1.9287   H         1 1      0.0000
    31 H12B     1.4895  -1.8541  -0.1751   H         1 1      0.0000
    32 C15      3.2064   2.0419  -0.5402   C.3       1 1      0.0000
    33 H15A     3.3147   2.0999  -1.6277   H         1 1      0.0000
    34 H15B     2.1463   2.1344  -0.2854   H         1 1      0.0000
    35 H15C     3.7421   2.8876  -0.0992   H         1 1      0.0000
    36 O2       0.8198  -1.2276  -2.6997   O.3       1 1      0.0000
    37 H21      0.3088  -0.7480  -3.4031   H         1 1      0.0000
    38 H22      1.6717   0.5083  -2.0745   H         1 1      0.0000
@<TRIPOS>BOND
     1     1     2   ar
     2     1     6   ar
     3     1    29    1
     4     2     3   ar
     5     2     7    1
     6     3     4   ar
     7     3    30    1
     8     4     5   ar
     9     4     8    1
    10     5     6   ar
    11     5     9    1
    12     6    10    1
    13     8    11    1
    14     8    12    1
    15     8    28    1
    16    11    13    1
    17    11    26    1
    18    11    27    1
    19    13    14    1
    20    14    15    1
    21    14    16    1
    22    14    31    1
    23    16    17    1
    24    16    20    2
    25    17    18    1
    26    17    19    1
    27    17    32    1
    28    20    21    1
    29    20    22    1
    30    22    23    1
    31    22    24    1
    32    22    25    1
    33    32    33    1
    34    32    34    1
    35    32    35    1
    36    13    36    1
    37    36    37    1
    38    13    38    1
@<TRIPOS>SUBSTRUCTURE
     1 1           1 GROUP             0 ****  ****    0  
@<TRIPOS>MOLECULE
Molecule Name_00001_00091
    38    38     1     0     0
SMALL
NO_CHARGES
****
Generated from the CSD

@<TRIPOS>ATOM
     1 C5      -4.9581   0.6779   0.9023   C.ar      1 1      0.0000
     2 C4      -4.8186   0.1826  -0.3992   C.ar      1 1      0.0000
     3 C3      -3.5877  -0.3266  -0.8266   C.ar      1 1      0.0000
     4 C8      -2.4844  -0.3461   0.0409   C.ar      1 1      0.0000
     5 C7      -2.6308   0.1599   1.3415   C.ar      1 1      0.0000
     6 C6      -3.8609   0.6703   1.7706   C.ar      1 1      0.0000
     7 H4      -5.6632   0.2001  -1.0804   H         1 1      0.0000
     8 C9      -1.1691  -0.9658  -0.4017   C.3       1 1      0.0000
     9 H7      -1.7781   0.1689   2.0168   H         1 1      0.0000
    10 H6      -3.9610   1.0666   2.7759   H         1 1      0.0000
    11 C10     -0.3108   0.0880  -1.1429   C.3       1 1      0.0000
    12 H9A     -0.6128  -1.3436   0.4633   H         1 1      0.0000
    13 C11      1.0148  -0.4342  -1.6207   C.3       1 1      0.0000
    14 C12      2.0090  -0.8779  -0.5344   C.3       1 1      0.0000
    15 H12A     2.8294  -1.4371  -1.0060   H         1 1      0.0000
    16 C13      2.6045   0.1804   0.3696   C.2       1 1      0.0000
    17 C14      3.6173   1.1146  -0.2258   C.3       1 1      0.0000
    18 H14B     3.6517   2.0333   0.3703   H         1 1      0.0000
    19 H14A     3.3455   1.3855  -1.2501   H         1 1      0.0000
    20 N        2.2141   0.2667   1.6070   N.pl3     1 1      0.0000
    21 HN       1.4666  -0.4217   1.8734   H         1 1      0.0000
    22 C        2.7133   1.2258   2.6361   C.3       1 1      0.0000
    23 H1A      2.0956   1.0998   3.5263   H         1 1      0.0000
    24 H1C      3.7558   0.9989   2.8815   H         1 1      0.0000
    25 H1B      2.6285   2.2532   2.2739   H         1 1      0.0000
    26 H10A    -0.8652   0.4851  -2.0086   H         1 1      0.0000
    27 H10B    -0.1312   0.9548  -0.4870   H         1 1      0.0000
    28 H9B     -1.3506  -1.8185  -1.0651   H         1 1      0.0000
    29 H5      -5.9113   1.0765   1.2336   H         1 1      0.0000
    30 H3      -3.4815  -0.6967  -1.8440   H         1 1      0.0000
    31 H12B     1.4975  -1.6127   0.1089   H         1 1      0.0000
    32 C15      5.0391   0.4567  -0.2208   C.3       1 1      0.0000
    33 H15A     5.3659   0.2225   0.7970   H         1 1      0.0000
    34 H15B     5.0569  -0.4603  -0.8174   H         1 1      0.0000
    35 H15C     5.7533   1.1635  -0.6536   H         1 1      0.0000
    36 O2       0.7749  -1.5337  -2.4768   O.3       1 1      0.0000
    37 H21      0.2263  -1.2378  -3.2498   H         1 1      0.0000
    38 H22      1.4903   0.3494  -2.2088   H         1 1      0.0000
@<TRIPOS>BOND
     1     1     2   ar
     2     1     6   ar
     3     1    29    1
     4     2     3   ar
     5     2     7    1
     6     3     4   ar
     7     3    30    1
     8     4     5   ar
     9     4     8    1
    10     5     6   ar
    11     5     9    1
    12     6    10    1
    13     8    11    1
    14     8    12    1
    15     8    28    1
    16    11    13    1
    17    11    26    1
    18    11    27    1
    19    13    14    1
    20    14    15    1
    21    14    16    1
    22    14    31    1
    23    16    17    1
    24    16    20    2
    25    17    18    1
    26    17    19    1
    27    17    32    1
    28    20    21    1
    29    20    22    1
    30    22    23    1
    31    22    24    1
    32    22    25    1
    33    32    33    1
    34    32    34    1
    35    32    35    1
    36    13    36    1
    37    36    37    1
    38    13    38    1
@<TRIPOS>SUBSTRUCTURE
     1 1           1 GROUP             0 ****  ****    0  
@<TRIPOS>MOLECULE
Molecule Name_00001_00092
    38    38     1     0     0
SMALL
NO_CHARGES
****
Generated from the CSD

@<TRIPOS>ATOM
     1 C5      -4.9356   0.4083  -1.0257   C.ar      1 1      0.0000
     2 C4      -4.5813   0.8932   0.2384   C.ar      1 1      0.0000
     3 C3      -3.4199   0.4298   0.8659   C.ar      1 1      0.0000
     4 C8      -2.6016  -0.5219   0.2378   C.ar      1 1      0.0000
     5 C7      -2.9686  -1.0088  -1.0261   C.ar      1 1      0.0000
     6 C6      -4.1301  -0.5471  -1.6550   C.ar      1 1      0.0000
     7 H4      -5.2110   1.6235   0.7361   H         1 1      0.0000
     8 C9      -1.3034  -0.9695   0.8891   C.3       1 1      0.0000
     9 H7      -2.3535  -1.7613  -1.5145   H         1 1      0.0000
    10 H6      -4.4089  -0.9362  -2.6290   H         1 1      0.0000
    11 C10     -0.3323   0.2300   1.0121   C.3       1 1      0.0000
    12 H9A     -1.4966  -1.3835   1.8850   H         1 1      0.0000
    13 C11      0.9848  -0.1164   1.6473   C.3       1 1      0.0000
    14 C12      2.2103   0.6750   1.1602   C.3       1 1      0.0000
    15 H12A     3.0446   0.5083   1.8562   H         1 1      0.0000
    16 C13      2.7049   0.4366  -0.2505   C.2       1 1      0.0000
    17 C14      3.9017   1.2175  -0.7097   C.3       1 1      0.0000
    18 H14B     3.8367   2.2378  -0.3157   H         1 1      0.0000
    19 H14A     3.9347   1.2774  -1.8013   H         1 1      0.0000
    20 N        2.1073  -0.4380  -1.0050   N.pl3     1 1      0.0000
    21 HN       1.3137  -0.9425  -0.5367   H         1 1      0.0000
    22 C        2.4441  -0.7757  -2.4194   C.3       1 1      0.0000
    23 H1A      1.8224  -1.6239  -2.7092   H         1 1      0.0000
    24 H1C      2.2215   0.0771  -3.0688   H         1 1      0.0000
    25 H1B      3.4987  -1.0479  -2.5065   H         1 1      0.0000
    26 H10A    -0.1399   0.6633   0.0173   H         1 1      0.0000
    27 H10B    -0.8033   1.0360   1.5970   H         1 1      0.0000
    28 H9B     -0.8302  -1.7610   0.2976   H         1 1      0.0000
    29 H5      -5.8381   0.7643  -1.5117   H         1 1      0.0000
    30 H3      -3.1575   0.7996   1.8547   H         1 1      0.0000
    31 H12B     1.9747   1.7482   1.2512   H         1 1      0.0000
    32 C15      5.2214   0.5570  -0.1842   C.3       1 1      0.0000
    33 H15A     5.2455   0.5309   0.9097   H         1 1      0.0000
    34 H15B     5.3368  -0.4625  -0.5645   H         1 1      0.0000
    35 H15C     6.0721   1.1520  -0.5293   H         1 1      0.0000
    36 O2       0.8649   0.0687   3.0440   O.3       1 1      0.0000
    37 H21      0.1501  -0.5238   3.3963   H         1 1      0.0000
    38 H22      1.1757  -1.1730   1.4656   H         1 1      0.0000
@<TRIPOS>BOND
     1     1     2   ar
     2     1     6   ar
     3     1    29    1
     4     2     3   ar
     5     2     7    1
     6     3     4   ar
     7     3    30    1
     8     4     5   ar
     9     4     8    1
    10     5     6   ar
    11     5     9    1
    12     6    10    1
    13     8    11    1
    14     8    12    1
    15     8    28    1
    16    11    13    1
    17    11    26    1
    18    11    27    1
    19    13    14    1
    20    14    15    1
    21    14    16    1
    22    14    31    1
    23    16    17    1
    24    16    20    2
    25    17    18    1
    26    17    19    1
    27    17    32    1
    28    20    21    1
    29    20    22    1
    30    22    23    1
    31    22    24    1
    32    22    25    1
    33    32    33    1
    34    32    34    1
    35    32    35    1
    36    13    36    1
    37    36    37    1
    38    13    38    1
@<TRIPOS>SUBSTRUCTURE
     1 1           1 GROUP             0 ****  ****    0  
@<TRIPOS>MOLECULE
Molecule Name_00001_00093
    38    38     1     0     0
SMALL
NO_CHARGES
****
Generated from the CSD

@<TRIPOS>ATOM
     1 C5      -4.7681   0.7995  -0.9629   C.ar      1 1      0.0000
     2 C4      -4.4067   1.0554   0.3647   C.ar      1 1      0.0000
     3 C3      -3.3001   0.4095   0.9262   C.ar      1 1      0.0000
     4 C8      -2.5440  -0.4981   0.1681   C.ar      1 1      0.0000
     5 C7      -2.9182  -0.7550  -1.1596   C.ar      1 1      0.0000
     6 C6      -4.0250  -0.1105  -1.7229   C.ar      1 1      0.0000
     7 H4      -4.9890   1.7496   0.9620   H         1 1      0.0000
     8 C9      -1.3003  -1.1432   0.7572   C.3       1 1      0.0000
     9 H7      -2.3525  -1.4713  -1.7513   H         1 1      0.0000
    10 H6      -4.3105  -0.3225  -2.7482   H         1 1      0.0000
    11 C10     -0.2417  -0.0590   1.0743   C.3       1 1      0.0000
    12 H9A     -1.5485  -1.6875   1.6751   H         1 1      0.0000
    13 C11      1.0291  -0.6035   1.6633   C.3       1 1      0.0000
    14 C12      2.3237   0.1516   1.3177   C.3       1 1      0.0000
    15 H12A     3.1258  -0.1863   1.9889   H         1 1      0.0000
    16 C13      2.8311   0.0922  -0.1074   C.2       1 1      0.0000
    17 C14      4.0956   0.8349  -0.4274   C.3       1 1      0.0000
    18 H14B     4.5528   0.3958  -1.3210   H         1 1      0.0000
    19 H14A     4.8139   0.7569   0.3937   H         1 1      0.0000
    20 N        2.1849  -0.6057  -0.9942   N.pl3     1 1      0.0000
    21 HN       1.3436  -1.1101  -0.6182   H         1 1      0.0000
    22 C        2.5273  -0.7496  -2.4399   C.3       1 1      0.0000
    23 H1A      1.8483  -1.4906  -2.8639   H         1 1      0.0000
    24 H1C      2.3873   0.2076  -2.9525   H         1 1      0.0000
    25 H1B      3.5593  -1.0895  -2.5561   H         1 1      0.0000
    26 H10A     0.0071   0.5043   0.1604   H         1 1      0.0000
    27 H10B    -0.6620   0.6837   1.7712   H         1 1      0.0000
    28 H9B     -0.8766  -1.8707   0.0561   H         1 1      0.0000
    29 H5      -5.6284   1.2972  -1.3983   H         1 1      0.0000
    30 H3      -3.0328   0.6014   1.9631   H         1 1      0.0000
    31 H12B     2.1705   1.2137   1.5703   H         1 1      0.0000
    32 C15      3.7878   2.3450  -0.7086   C.3       1 1      0.0000
    33 H15A     3.1128   2.4616  -1.5621   H         1 1      0.0000
    34 H15B     3.3411   2.8308   0.1641   H         1 1      0.0000
    35 H15C     4.7262   2.8554  -0.9446   H         1 1      0.0000
    36 O2       0.8913  -0.6247   3.0704   O.3       1 1      0.0000
    37 H21      0.1244  -1.2044   3.3191   H         1 1      0.0000
    38 H22      1.1412  -1.6319   1.3230   H         1 1      0.0000
@<TRIPOS>BOND
     1     1     2   ar
     2     1     6   ar
     3     1    29    1
     4     2     3   ar
     5     2     7    1
     6     3     4   ar
     7     3    30    1
     8     4     5   ar
     9     4     8    1
    10     5     6   ar
    11     5     9    1
    12     6    10    1
    13     8    11    1
    14     8    12    1
    15     8    28    1
    16    11    13    1
    17    11    26    1
    18    11    27    1
    19    13    14    1
    20    14    15    1
    21    14    16    1
    22    14    31    1
    23    16    17    1
    24    16    20    2
    25    17    18    1
    26    17    19    1
    27    17    32    1
    28    20    21    1
    29    20    22    1
    30    22    23    1
    31    22    24    1
    32    22    25    1
    33    32    33    1
    34    32    34    1
    35    32    35    1
    36    13    36    1
    37    36    37    1
    38    13    38    1
@<TRIPOS>SUBSTRUCTURE
     1 1           1 GROUP             0 ****  ****    0  
@<TRIPOS>MOLECULE
Molecule Name_00001_00094
    38    38     1     0     0
SMALL
NO_CHARGES
****
Generated from the CSD

@<TRIPOS>ATOM
     1 C5      -4.3873  -1.5230  -0.3626   C.ar      1 1      0.0000
     2 C4      -3.4554  -1.4796   0.6805   C.ar      1 1      0.0000
     3 C3      -2.5573  -0.4110   0.7732   C.ar      1 1      0.0000
     4 C8      -2.5807   0.6241  -0.1744   C.ar      1 1      0.0000
     5 C7      -3.5130   0.5686  -1.2217   C.ar      1 1      0.0000
     6 C6      -4.4116  -0.4997  -1.3165   C.ar      1 1      0.0000
     7 H4      -3.4237  -2.2787   1.4141   H         1 1      0.0000
     8 C9      -1.6532   1.8195  -0.0305   C.3       1 1      0.0000
     9 H7      -3.5280   1.3543  -1.9738   H         1 1      0.0000
    10 H6      -5.1232  -0.5369  -2.1351   H         1 1      0.0000
    11 C10     -0.7322   1.6294   1.1993   C.3       1 1      0.0000
    12 H9A     -1.0382   1.9383  -0.9295   H         1 1      0.0000
    13 C11      0.3566   0.6145   0.9927   C.3       1 1      0.0000
    14 C12      1.4770   1.0006   0.0124   C.3       1 1      0.0000
    15 H12A     1.9915   1.8954   0.3904   H         1 1      0.0000
    16 C13      2.5175  -0.0423  -0.3360   C.2       1 1      0.0000
    17 C14      3.6182   0.3591  -1.2742   C.3       1 1      0.0000
    18 H14B     3.2045   1.0049  -2.0568   H         1 1      0.0000
    19 H14A     4.0602  -0.5172  -1.7569   H         1 1      0.0000
    20 N        2.4461  -1.2277   0.1940   N.pl3     1 1      0.0000
    21 HN       1.6500  -1.3526   0.8679   H         1 1      0.0000
    22 C        3.3657  -2.3758  -0.0591   C.3       1 1      0.0000
    23 H1A      3.0869  -3.1750   0.6291   H         1 1      0.0000
    24 H1C      3.2488  -2.7260  -1.0897   H         1 1      0.0000
    25 H1B      4.4025  -2.0820   0.1217   H         1 1      0.0000
    26 H10A    -0.2695   2.5903   1.4764   H         1 1      0.0000
    27 H10B    -1.3310   1.3292   2.0740   H         1 1      0.0000
    28 H9B     -2.2319   2.7422   0.0880   H         1 1      0.0000
    29 H5      -5.0819  -2.3533  -0.4376   H         1 1      0.0000
    30 H3      -1.8255  -0.3902   1.5779   H         1 1      0.0000
    31 H12B     1.0028   1.3224  -0.9295   H         1 1      0.0000
    32 C15      4.7324   1.1482  -0.5060   C.3       1 1      0.0000
    33 H15A     4.3342   2.0627  -0.0556   H         1 1      0.0000
    34 H15B     5.1859   0.5361   0.2794   H         1 1      0.0000
    35 H15C     5.5142   1.4314  -1.2169   H         1 1      0.0000
    36 O2       0.9440   0.3338   2.2479   O.3       1 1      0.0000
    37 H21      0.2534  -0.0275   2.8632   H         1 1      0.0000
    38 H22     -0.1055  -0.3016   0.6278   H         1 1      0.0000
@<TRIPOS>BOND
     1     1     2   ar
     2     1     6   ar
     3     1    29    1
     4     2     3   ar
     5     2     7    1
     6     3     4   ar
     7     3    30    1
     8     4     5   ar
     9     4     8    1
    10     5     6   ar
    11     5     9    1
    12     6    10    1
    13     8    11    1
    14     8    12    1
    15     8    28    1
    16    11    13    1
    17    11    26    1
    18    11    27    1
    19    13    14    1
    20    14    15    1
    21    14    16    1
    22    14    31    1
    23    16    17    1
    24    16    20    2
    25    17    18    1
    26    17    19    1
    27    17    32    1
    28    20    21    1
    29    20    22    1
    30    22    23    1
    31    22    24    1
    32    22    25    1
    33    32    33    1
    34    32    34    1
    35    32    35    1
    36    13    36    1
    37    36    37    1
    38    13    38    1
@<TRIPOS>SUBSTRUCTURE
     1 1           1 GROUP             0 ****  ****    0  
@<TRIPOS>MOLECULE
Molecule Name_00001_00095
    38    38     1     0     0
SMALL
NO_CHARGES
****
Generated from the CSD

@<TRIPOS>ATOM
     1 C5      -4.3025   0.3275  -1.4045   C.ar      1 1      0.0000
     2 C4      -3.4238  -0.7496  -1.2425   C.ar      1 1      0.0000
     3 C3      -2.5071  -0.7528  -0.1857   C.ar      1 1      0.0000
     4 C8      -2.4587   0.3192   0.7192   C.ar      1 1      0.0000
     5 C7      -3.3378   1.3988   0.5446   C.ar      1 1      0.0000
     6 C6      -4.2549   1.4041  -0.5121   C.ar      1 1      0.0000
     7 H4      -3.4477  -1.5799  -1.9409   H         1 1      0.0000
     8 C9      -1.5124   0.2800   1.9078   C.3       1 1      0.0000
     9 H7      -3.2967   2.2448   1.2272   H         1 1      0.0000
    10 H6      -4.9249   2.2478  -0.6427   H         1 1      0.0000
    11 C10     -0.6594  -1.0112   1.8624   C.3       1 1      0.0000
    12 H9A     -0.8501   1.1528   1.8998   H         1 1      0.0000
    13 C11      0.4148  -0.9939   0.8117   C.3       1 1      0.0000
    14 C12      1.5919  -0.0332   1.0501   C.3       1 1      0.0000
    15 H12A     2.1072  -0.3207   1.9775   H         1 1      0.0000
    16 C13      2.6244   0.1234  -0.0459   C.2       1 1      0.0000
    17 C14      3.7801   1.0454   0.2133   C.3       1 1      0.0000
    18 H14B     4.6159   0.7642  -0.4369   H         1 1      0.0000
    19 H14A     4.1174   0.9683   1.2509   H         1 1      0.0000
    20 N        2.4990  -0.5490  -1.1519   N.pl3     1 1      0.0000
    21 HN       1.6671  -1.1901  -1.1761   H         1 1      0.0000
    22 C        3.4035  -0.4937  -2.3380   C.3       1 1      0.0000
    23 H1A      3.0719  -1.2625  -3.0373   H         1 1      0.0000
    24 H1C      3.3309   0.4885  -2.8159   H         1 1      0.0000
    25 H1B      4.4364  -0.6903  -2.0404   H         1 1      0.0000
    26 H10A    -0.1892  -1.1876   2.8433   H         1 1      0.0000
    27 H10B    -1.3084  -1.8840   1.6871   H         1 1      0.0000
    28 H9B     -2.0748   0.3111   2.8474   H         1 1      0.0000
    29 H5      -5.0114   0.3326  -2.2259   H         1 1      0.0000
    30 H3      -1.8167  -1.5859  -0.0735   H         1 1      0.0000
    31 H12B     1.1735   0.9659   1.2557   H         1 1      0.0000
    32 C15      3.3782   2.5279  -0.0949   C.3       1 1      0.0000
    33 H15A     3.0869   2.6520  -1.1424   H         1 1      0.0000
    34 H15B     2.5529   2.8588   0.5429   H         1 1      0.0000
    35 H15C     4.2416   3.1718   0.0970   H         1 1      0.0000
    36 O2       0.9314  -2.3041   0.6853   O.3       1 1      0.0000
    37 H21      0.2025  -2.9230   0.4175   H         1 1      0.0000
    38 H22     -0.0493  -0.7250  -0.1361   H         1 1      0.0000
@<TRIPOS>BOND
     1     1     2   ar
     2     1     6   ar
     3     1    29    1
     4     2     3   ar
     5     2     7    1
     6     3     4   ar
     7     3    30    1
     8     4     5   ar
     9     4     8    1
    10     5     6   ar
    11     5     9    1
    12     6    10    1
    13     8    11    1
    14     8    12    1
    15     8    28    1
    16    11    13    1
    17    11    26    1
    18    11    27    1
    19    13    14    1
    20    14    15    1
    21    14    16    1
    22    14    31    1
    23    16    17    1
    24    16    20    2
    25    17    18    1
    26    17    19    1
    27    17    32    1
    28    20    21    1
    29    20    22    1
    30    22    23    1
    31    22    24    1
    32    22    25    1
    33    32    33    1
    34    32    34    1
    35    32    35    1
    36    13    36    1
    37    36    37    1
    38    13    38    1
@<TRIPOS>SUBSTRUCTURE
     1 1           1 GROUP             0 ****  ****    0  
@<TRIPOS>MOLECULE
Molecule Name_00001_00096
    38    38     1     0     0
SMALL
NO_CHARGES
****
Generated from the CSD

@<TRIPOS>ATOM
     1 C5      -4.4512   0.5106   1.4196   C.ar      1 1      0.0000
     2 C4      -4.5720   0.8976   0.0802   C.ar      1 1      0.0000
     3 C3      -3.6999   0.3755  -0.8811   C.ar      1 1      0.0000
     4 C8      -2.6990  -0.5376  -0.5144   C.ar      1 1      0.0000
     5 C7      -2.5797  -0.9140   0.8321   C.ar      1 1      0.0000
     6 C6      -3.4505  -0.3924   1.7951   C.ar      1 1      0.0000
     7 H4      -5.3375   1.6089  -0.2128   H         1 1      0.0000
     8 C9      -1.8000  -1.1584  -1.5710   C.3       1 1      0.0000
     9 H7      -1.7954  -1.6054   1.1323   H         1 1      0.0000
    10 H6      -3.3444  -0.6841   2.8350   H         1 1      0.0000
    11 C10     -0.5821  -0.2399  -1.8353   C.3       1 1      0.0000
    12 H9A     -1.4477  -2.1432  -1.2444   H         1 1      0.0000
    13 C11      0.3855  -0.1675  -0.6878   C.3       1 1      0.0000
    14 C12      1.8672   0.0272  -1.0514   C.3       1 1      0.0000
    15 H12A     1.9837   0.9832  -1.5813   H         1 1      0.0000
    16 C13      2.8936  -0.0360   0.0595   C.2       1 1      0.0000
    17 C14      4.3323   0.1815  -0.3090   C.3       1 1      0.0000
    18 H14B     4.5333  -0.3035  -1.2707   H         1 1      0.0000
    19 H14A     4.9987  -0.2586   0.4382   H         1 1      0.0000
    20 N        2.5083  -0.2492   1.2831   N.pl3     1 1      0.0000
    21 HN       1.4679  -0.3368   1.3996   H         1 1      0.0000
    22 C        3.3829  -0.3684   2.4868   C.3       1 1      0.0000
    23 H1A      2.7308  -0.4315   3.3589   H         1 1      0.0000
    24 H1C      3.9880  -1.2782   2.4184   H         1 1      0.0000
    25 H1B      4.0309   0.5068   2.5764   H         1 1      0.0000
    26 H10A    -0.0397  -0.5811  -2.7319   H         1 1      0.0000
    27 H10B    -0.9252   0.7802  -2.0706   H         1 1      0.0000
    28 H9B     -2.3523  -1.3076  -2.5053   H         1 1      0.0000
    29 H5      -5.1247   0.9178   2.1666   H         1 1      0.0000
    30 H3      -3.7894   0.6913  -1.9182   H         1 1      0.0000
    31 H12B     2.1348  -0.7431  -1.7934   H         1 1      0.0000
    32 C15      4.6382   1.7122  -0.4427   C.3       1 1      0.0000
    33 H15A     4.0253   2.1742  -1.2228   H         1 1      0.0000
    34 H15B     4.4644   2.2381   0.5010   H         1 1      0.0000
    35 H15C     5.6897   1.8362  -0.7178   H         1 1      0.0000
    36 O2      -0.0069   0.8976   0.1554   O.3       1 1      0.0000
    37 H21     -0.4286   0.5315   0.9766   H         1 1      0.0000
    38 H22      0.2997  -1.0925  -0.1196   H         1 1      0.0000
@<TRIPOS>BOND
     1     1     2   ar
     2     1     6   ar
     3     1    29    1
     4     2     3   ar
     5     2     7    1
     6     3     4   ar
     7     3    30    1
     8     4     5   ar
     9     4     8    1
    10     5     6   ar
    11     5     9    1
    12     6    10    1
    13     8    11    1
    14     8    12    1
    15     8    28    1
    16    11    13    1
    17    11    26    1
    18    11    27    1
    19    13    14    1
    20    14    15    1
    21    14    16    1
    22    14    31    1
    23    16    17    1
    24    16    20    2
    25    17    18    1
    26    17    19    1
    27    17    32    1
    28    20    21    1
    29    20    22    1
    30    22    23    1
    31    22    24    1
    32    22    25    1
    33    32    33    1
    34    32    34    1
    35    32    35    1
    36    13    36    1
    37    36    37    1
    38    13    38    1
@<TRIPOS>SUBSTRUCTURE
     1 1           1 GROUP             0 ****  ****    0  
@<TRIPOS>MOLECULE
Molecule Name_00001_00097
    38    38     1     0     0
SMALL
NO_CHARGES
****
Generated from the CSD

@<TRIPOS>ATOM
     1 C5      -4.4535  -1.4849   0.5204   C.ar      1 1      0.0000
     2 C4      -4.5959  -0.1996   1.0555   C.ar      1 1      0.0000
     3 C3      -3.7360   0.8269   0.6505   C.ar      1 1      0.0000
     4 C8      -2.7258   0.5801  -0.2923   C.ar      1 1      0.0000
     5 C7      -2.5849  -0.7133  -0.8177   C.ar      1 1      0.0000
     6 C6      -3.4435  -1.7415  -0.4133   C.ar      1 1      0.0000
     7 H4      -5.3687   0.0001   1.7908   H         1 1      0.0000
     8 C9      -1.8400   1.7128  -0.7845   C.3       1 1      0.0000
     9 H7      -1.7933  -0.9222  -1.5339   H         1 1      0.0000
    10 H6      -3.3207  -2.7401  -0.8199   H         1 1      0.0000
    11 C10     -0.6301   1.8891   0.1652   C.3       1 1      0.0000
    12 H9A     -1.4788   1.5048  -1.7977   H         1 1      0.0000
    13 C11      0.3541   0.7547   0.1133   C.3       1 1      0.0000
    14 C12      1.8294   1.1151   0.3566   C.3       1 1      0.0000
    15 H12A     1.9339   1.5351   1.3669   H         1 1      0.0000
    16 C13      2.8725   0.0333   0.1743   C.2       1 1      0.0000
    17 C14      4.3046   0.3953   0.4406   C.3       1 1      0.0000
    18 H14B     4.8680  -0.5159   0.6704   H         1 1      0.0000
    19 H14A     4.3851   1.0688   1.2986   H         1 1      0.0000
    20 N        2.5063  -1.1638  -0.1780   N.pl3     1 1      0.0000
    21 HN       1.4682  -1.2846  -0.2843   H         1 1      0.0000
    22 C        3.3993  -2.3337  -0.4273   C.3       1 1      0.0000
    23 H1A      2.7605  -3.2024  -0.5923   H         1 1      0.0000
    24 H1C      4.0071  -2.1542  -1.3199   H         1 1      0.0000
    25 H1B      4.0448  -2.5124   0.4361   H         1 1      0.0000
    26 H10A    -0.0996   2.8261  -0.0693   H         1 1      0.0000
    27 H10B    -0.9810   2.0026   1.2034   H         1 1      0.0000
    28 H9B     -2.4055   2.6501  -0.8304   H         1 1      0.0000
    29 H5      -5.1176  -2.2826   0.8366   H         1 1      0.0000
    30 H3      -3.8422   1.8203   1.0809   H         1 1      0.0000
    31 H12B     2.0892   1.9431  -0.3234   H         1 1      0.0000
    32 C15      4.9405   1.0773  -0.8184   C.3       1 1      0.0000
    33 H15A     4.9259   0.4078  -1.6840   H         1 1      0.0000
    34 H15B     4.4174   2.0024  -1.0785   H         1 1      0.0000
    35 H15C     5.9830   1.3219  -0.5948   H         1 1      0.0000
    36 O2      -0.0302  -0.2091   1.0739   O.3       1 1      0.0000
    37 H21     -0.4447  -0.9864   0.6155   H         1 1      0.0000
    38 H22      0.2808   0.2935  -0.8705   H         1 1      0.0000
@<TRIPOS>BOND
     1     1     2   ar
     2     1     6   ar
     3     1    29    1
     4     2     3   ar
     5     2     7    1
     6     3     4   ar
     7     3    30    1
     8     4     5   ar
     9     4     8    1
    10     5     6   ar
    11     5     9    1
    12     6    10    1
    13     8    11    1
    14     8    12    1
    15     8    28    1
    16    11    13    1
    17    11    26    1
    18    11    27    1
    19    13    14    1
    20    14    15    1
    21    14    16    1
    22    14    31    1
    23    16    17    1
    24    16    20    2
    25    17    18    1
    26    17    19    1
    27    17    32    1
    28    20    21    1
    29    20    22    1
    30    22    23    1
    31    22    24    1
    32    22    25    1
    33    32    33    1
    34    32    34    1
    35    32    35    1
    36    13    36    1
    37    36    37    1
    38    13    38    1
@<TRIPOS>SUBSTRUCTURE
     1 1           1 GROUP             0 ****  ****    0  
@<TRIPOS>MOLECULE
Molecule Name_00001_00098
    38    38     1     0     0
SMALL
NO_CHARGES
****
Generated from the CSD

@<TRIPOS>ATOM
     1 C5      -5.5996   0.7946   0.2555   C.ar      1 1      0.0000
     2 C4      -4.9405  -0.0177   1.1851   C.ar      1 1      0.0000
     3 C3      -3.6709  -0.5280   0.8934   C.ar      1 1      0.0000
     4 C8      -3.0476  -0.2326  -0.3289   C.ar      1 1      0.0000
     5 C7      -3.7190   0.5760  -1.2587   C.ar      1 1      0.0000
     6 C6      -4.9890   1.0868  -0.9691   C.ar      1 1      0.0000
     7 H4      -5.4167  -0.2585   2.1301   H         1 1      0.0000
     8 C9      -1.6392  -0.7281  -0.6134   C.3       1 1      0.0000
     9 H7      -3.2552   0.7958  -2.2178   H         1 1      0.0000
    10 H6      -5.5028   1.7045  -1.6986   H         1 1      0.0000
    11 C10     -0.6442  -0.1000   0.3928   C.3       1 1      0.0000
    12 H9A     -1.5936  -1.8200  -0.5353   H         1 1      0.0000
    13 C11      0.7805  -0.5326   0.1897   C.3       1 1      0.0000
    14 C12      1.8667   0.4989   0.5385   C.3       1 1      0.0000
    15 H12A     1.7954   0.7473   1.6068   H         1 1      0.0000
    16 C13      3.3071   0.1614   0.2175   C.2       1 1      0.0000
    17 C14      3.7312   0.2181  -1.2212   C.3       1 1      0.0000
    18 H14B     2.9226  -0.1726  -1.8490   H         1 1      0.0000
    19 H14A     4.6197  -0.3964  -1.3920   H         1 1      0.0000
    20 N        4.1294  -0.1396   1.1789   N.pl3     1 1      0.0000
    21 HN       3.7065  -0.0943   2.1395   H         1 1      0.0000
    22 C        5.5654  -0.5220   1.0388   C.3       1 1      0.0000
    23 H1A      5.9827  -0.5965   2.0440   H         1 1      0.0000
    24 H1C      5.6450  -1.4927   0.5391   H         1 1      0.0000
    25 H1B      6.1094   0.2373   0.4718   H         1 1      0.0000
    26 H10A    -0.6900   0.9994   0.3326   H         1 1      0.0000
    27 H10B    -0.9439  -0.3501   1.4230   H         1 1      0.0000
    28 H9B     -1.3387  -0.4654  -1.6337   H         1 1      0.0000
    29 H5      -6.5858   1.1879   0.4792   H         1 1      0.0000
    30 H3      -3.1698  -1.1707   1.6139   H         1 1      0.0000
    31 H12B     1.6213   1.4359   0.0120   H         1 1      0.0000
    32 C15      4.0304   1.6959  -1.6464   C.3       1 1      0.0000
    33 H15A     3.1437   2.3284  -1.5396   H         1 1      0.0000
    34 H15B     4.8439   2.1251  -1.0537   H         1 1      0.0000
    35 H15C     4.3293   1.7037  -2.6987   H         1 1      0.0000
    36 O2       1.0059  -1.6925   0.9665   O.3       1 1      0.0000
    37 H21      0.3863  -2.4117   0.6749   H         1 1      0.0000
    38 H22      0.9013  -0.8036  -0.8581   H         1 1      0.0000
@<TRIPOS>BOND
     1     1     2   ar
     2     1     6   ar
     3     1    29    1
     4     2     3   ar
     5     2     7    1
     6     3     4   ar
     7     3    30    1
     8     4     5   ar
     9     4     8    1
    10     5     6   ar
    11     5     9    1
    12     6    10    1
    13     8    11    1
    14     8    12    1
    15     8    28    1
    16    11    13    1
    17    11    26    1
    18    11    27    1
    19    13    14    1
    20    14    15    1
    21    14    16    1
    22    14    31    1
    23    16    17    1
    24    16    20    2
    25    17    18    1
    26    17    19    1
    27    17    32    1
    28    20    21    1
    29    20    22    1
    30    22    23    1
    31    22    24    1
    32    22    25    1
    33    32    33    1
    34    32    34    1
    35    32    35    1
    36    13    36    1
    37    36    37    1
    38    13    38    1
@<TRIPOS>SUBSTRUCTURE
     1 1           1 GROUP             0 ****  ****    0  
@<TRIPOS>MOLECULE
Molecule Name_00001_00099
    38    38     1     0     0
SMALL
NO_CHARGES
****
Generated from the CSD

@<TRIPOS>ATOM
     1 C5      -5.6200  -0.0646   0.5549   C.ar      1 1      0.0000
     2 C4      -4.9247  -0.9714  -0.2531   C.ar      1 1      0.0000
     3 C3      -3.6107  -0.6950  -0.6456   C.ar      1 1      0.0000
     4 C8      -2.9784   0.4891  -0.2357   C.ar      1 1      0.0000
     5 C7      -3.6855   1.3967   0.5676   C.ar      1 1      0.0000
     6 C6      -5.0001   1.1224   0.9607   C.ar      1 1      0.0000
     7 H4      -5.4069  -1.8863  -0.5819   H         1 1      0.0000
     8 C9      -1.5274   0.7529  -0.6030   C.3       1 1      0.0000
     9 H7      -3.2137   2.3272   0.8753   H         1 1      0.0000
    10 H6      -5.5407   1.8348   1.5754   H         1 1      0.0000
    11 C10     -0.6148  -0.3168   0.0449   C.3       1 1      0.0000
    12 H9A     -1.3969   0.7308  -1.6906   H         1 1      0.0000
    13 C11      0.8451  -0.1381  -0.2631   C.3       1 1      0.0000
    14 C12      1.8350  -0.5758   0.8297   C.3       1 1      0.0000
    15 H12A     1.7137  -1.6528   1.0128   H         1 1      0.0000
    16 C13      3.3064  -0.2848   0.6242   C.2       1 1      0.0000
    17 C14      3.7653   1.1343   0.7928   C.3       1 1      0.0000
    18 H14B     4.8370   1.1398   1.0208   H         1 1      0.0000
    19 H14A     3.2405   1.6197   1.6206   H         1 1      0.0000
    20 N        4.1224  -1.2555   0.3360   N.pl3     1 1      0.0000
    21 HN       3.6700  -2.2028   0.2953   H         1 1      0.0000
    22 C        5.5878  -1.1426   0.0756   C.3       1 1      0.0000
    23 H1A      5.9809  -2.1556  -0.0211   H         1 1      0.0000
    24 H1C      5.7589  -0.5954  -0.8570   H         1 1      0.0000
    25 H1B      6.0852  -0.6343   0.9051   H         1 1      0.0000
    26 H10A    -0.7467  -0.3129   1.1389   H         1 1      0.0000
    27 H10B    -0.9228  -1.3222  -0.2841   H         1 1      0.0000
    28 H9B     -1.2199   1.7477  -0.2621   H         1 1      0.0000
    29 H5      -6.6404  -0.2762   0.8569   H         1 1      0.0000
    30 H3      -3.0805  -1.3968  -1.2857   H         1 1      0.0000
    31 H12B     1.5305  -0.0914   1.7721   H         1 1      0.0000
    32 C15      3.5259   1.9478  -0.5244   C.3       1 1      0.0000
    33 H15A     3.6697   1.3221  -1.4106   H         1 1      0.0000
    34 H15B     2.5187   2.3744  -0.5528   H         1 1      0.0000
    35 H15C     4.2488   2.7678  -0.5657   H         1 1      0.0000
    36 O2       1.1403  -0.8599  -1.4426   O.3       1 1      0.0000
    37 H21      0.5888  -0.5109  -2.1910   H         1 1      0.0000
    38 H22      1.0169   0.9180  -0.4659   H         1 1      0.0000
@<TRIPOS>BOND
     1     1     2   ar
     2     1     6   ar
     3     1    29    1
     4     2     3   ar
     5     2     7    1
     6     3     4   ar
     7     3    30    1
     8     4     5   ar
     9     4     8    1
    10     5     6   ar
    11     5     9    1
    12     6    10    1
    13     8    11    1
    14     8    12    1
    15     8    28    1
    16    11    13    1
    17    11    26    1
    18    11    27    1
    19    13    14    1
    20    14    15    1
    21    14    16    1
    22    14    31    1
    23    16    17    1
    24    16    20    2
    25    17    18    1
    26    17    19    1
    27    17    32    1
    28    20    21    1
    29    20    22    1
    30    22    23    1
    31    22    24    1
    32    22    25    1
    33    32    33    1
    34    32    34    1
    35    32    35    1
    36    13    36    1
    37    36    37    1
    38    13    38    1
@<TRIPOS>SUBSTRUCTURE
     1 1           1 GROUP             0 ****  ****    0  
@<TRIPOS>MOLECULE
Molecule Name_00001_00100
    38    38     1     0     0
SMALL
NO_CHARGES
****
Generated from the CSD

@<TRIPOS>ATOM
     1 C5      -5.6317   0.5098  -0.4920   C.ar      1 1      0.0000
     2 C4      -4.8998   1.2146   0.4704   C.ar      1 1      0.0000
     3 C3      -3.6291   0.7687   0.8491   C.ar      1 1      0.0000
     4 C8      -3.0770  -0.3851   0.2711   C.ar      1 1      0.0000
     5 C7      -3.8209  -1.0904  -0.6871   C.ar      1 1      0.0000
     6 C6      -5.0923  -0.6463  -1.0667   C.ar      1 1      0.0000
     7 H4      -5.3206   2.1036   0.9291   H         1 1      0.0000
     8 C9      -1.6678  -0.8264   0.6308   C.3       1 1      0.0000
     9 H7      -3.4125  -1.9971  -1.1278   H         1 1      0.0000
    10 H6      -5.6625  -1.2038  -1.8028   H         1 1      0.0000
    11 C10     -0.6473   0.2508   0.1891   C.3       1 1      0.0000
    12 H9A     -1.5803  -0.9880   1.7109   H         1 1      0.0000
    13 C11      0.7801  -0.0981   0.5041   C.3       1 1      0.0000
    14 C12      1.8454   0.4213  -0.4761   C.3       1 1      0.0000
    15 H12A     1.8309   1.5203  -0.4720   H         1 1      0.0000
    16 C13      3.2750  -0.0424  -0.2949   C.2       1 1      0.0000
    17 C14      4.0503   0.5264   0.8576   C.3       1 1      0.0000
    18 H14B     4.8701  -0.1555   1.1095   H         1 1      0.0000
    19 H14A     3.4153   0.6338   1.7416   H         1 1      0.0000
    20 N        3.7771  -0.9214  -1.1114   N.pl3     1 1      0.0000
    21 HN       3.1055  -1.2659  -1.8420   H         1 1      0.0000
    22 C        5.1675  -1.4640  -1.0944   C.3       1 1      0.0000
    23 H1A      5.2166  -2.2587  -1.8401   H         1 1      0.0000
    24 H1C      5.8784  -0.6741  -1.3571   H         1 1      0.0000
    25 H1B      5.4067  -1.8712  -0.1090   H         1 1      0.0000
    26 H10A    -0.7343   0.4315  -0.8945   H         1 1      0.0000
    27 H10B    -0.8873   1.2139   0.6673   H         1 1      0.0000
    28 H9B     -1.4269  -1.7770   0.1425   H         1 1      0.0000
    29 H5      -6.6189   0.8527  -0.7838   H         1 1      0.0000
    30 H3      -3.0711   1.3125   1.6083   H         1 1      0.0000
    31 H12B     1.5319   0.1369  -1.4942   H         1 1      0.0000
    32 C15      4.6536   1.9212   0.4770   C.3       1 1      0.0000
    33 H15A     5.3388   1.8403  -0.3725   H         1 1      0.0000
    34 H15B     3.8683   2.6420   0.2301   H         1 1      0.0000
    35 H15C     5.2165   2.3045   1.3331   H         1 1      0.0000
    36 O2       1.0836   0.4000   1.7922   O.3       1 1      0.0000
    37 H21      0.4760  -0.0149   2.4592   H         1 1      0.0000
    38 H22      0.8588  -1.1837   0.5386   H         1 1      0.0000
@<TRIPOS>BOND
     1     1     2   ar
     2     1     6   ar
     3     1    29    1
     4     2     3   ar
     5     2     7    1
     6     3     4   ar
     7     3    30    1
     8     4     5   ar
     9     4     8    1
    10     5     6   ar
    11     5     9    1
    12     6    10    1
    13     8    11    1
    14     8    12    1
    15     8    28    1
    16    11    13    1
    17    11    26    1
    18    11    27    1
    19    13    14    1
    20    14    15    1
    21    14    16    1
    22    14    31    1
    23    16    17    1
    24    16    20    2
    25    17    18    1
    26    17    19    1
    27    17    32    1
    28    20    21    1
    29    20    22    1
    30    22    23    1
    31    22    24    1
    32    22    25    1
    33    32    33    1
    34    32    34    1
    35    32    35    1
    36    13    36    1
    37    36    37    1
    38    13    38    1
@<TRIPOS>SUBSTRUCTURE
     1 1           1 GROUP             0 ****  ****    0  
@<TRIPOS>MOLECULE
Molecule Name_00001_00101
    38    38     1     0     0
SMALL
NO_CHARGES
****
Generated from the CSD

@<TRIPOS>ATOM
     1 C5      -4.9100   0.1828  -1.0941   C.ar      1 1      0.0000
     2 C4      -4.7106   1.1244  -0.0782   C.ar      1 1      0.0000
     3 C3      -3.5251   1.1129   0.6646   C.ar      1 1      0.0000
     4 C8      -2.5277   0.1613   0.4005   C.ar      1 1      0.0000
     5 C7      -2.7393  -0.7843  -0.6144   C.ar      1 1      0.0000
     6 C6      -3.9245  -0.7749  -1.3580   C.ar      1 1      0.0000
     7 H4      -5.4786   1.8597   0.1392   H         1 1      0.0000
     8 C9      -1.2114   0.1962   1.1594   C.3       1 1      0.0000
     9 H7      -1.9826  -1.5395  -0.8154   H         1 1      0.0000
    10 H6      -4.0813  -1.5157  -2.1353   H         1 1      0.0000
    11 C10     -0.2952  -0.9572   0.6827   C.3       1 1      0.0000
    12 H9A     -0.7023   1.1533   1.0007   H         1 1      0.0000
    13 C11      1.0355  -1.0045   1.3793   C.3       1 1      0.0000
    14 C12      1.9725   0.1934   1.1502   C.3       1 1      0.0000
    15 H12A     2.7795   0.1651   1.8960   H         1 1      0.0000
    16 C13      2.5895   0.3706  -0.2207   C.2       1 1      0.0000
    17 C14      3.4891   1.5535  -0.4314   C.3       1 1      0.0000
    18 H14B     3.0758   2.4175   0.1006   H         1 1      0.0000
    19 H14A     3.5569   1.8097  -1.4925   H         1 1      0.0000
    20 N        2.3484  -0.5014  -1.1549   N.pl3     1 1      0.0000
    21 HN       1.7391  -1.3019  -0.8521   H         1 1      0.0000
    22 C        2.8489  -0.4656  -2.5606   C.3       1 1      0.0000
    23 H1A      2.5526  -1.4015  -3.0364   H         1 1      0.0000
    24 H1C      2.3947   0.3744  -3.0960   H         1 1      0.0000
    25 H1B      3.9378  -0.3754  -2.5764   H         1 1      0.0000
    26 H10A    -0.8018  -1.9253   0.8257   H         1 1      0.0000
    27 H10B    -0.1212  -0.8746  -0.4020   H         1 1      0.0000
    28 H9B     -1.3867   0.0995   2.2366   H         1 1      0.0000
    29 H5      -5.8306   0.1885  -1.6684   H         1 1      0.0000
    30 H3      -3.3821   1.8381   1.4627   H         1 1      0.0000
    31 H12B     1.4062   1.1112   1.3793   H         1 1      0.0000
    32 C15      4.9231   1.2572   0.1255   C.3       1 1      0.0000
    33 H15A     4.8982   1.0501   1.1998   H         1 1      0.0000
    34 H15B     5.3831   0.4073  -0.3875   H         1 1      0.0000
    35 H15C     5.5506   2.1386  -0.0367   H         1 1      0.0000
    36 O2       0.8035  -1.1256   2.7689   O.3       1 1      0.0000
    37 H21      0.2949  -1.9594   2.9482   H         1 1      0.0000
    38 H22      1.5543  -1.9027   1.0478   H         1 1      0.0000
@<TRIPOS>BOND
     1     1     2   ar
     2     1     6   ar
     3     1    29    1
     4     2     3   ar
     5     2     7    1
     6     3     4   ar
     7     3    30    1
     8     4     5   ar
     9     4     8    1
    10     5     6   ar
    11     5     9    1
    12     6    10    1
    13     8    11    1
    14     8    12    1
    15     8    28    1
    16    11    13    1
    17    11    26    1
    18    11    27    1
    19    13    14    1
    20    14    15    1
    21    14    16    1
    22    14    31    1
    23    16    17    1
    24    16    20    2
    25    17    18    1
    26    17    19    1
    27    17    32    1
    28    20    21    1
    29    20    22    1
    30    22    23    1
    31    22    24    1
    32    22    25    1
    33    32    33    1
    34    32    34    1
    35    32    35    1
    36    13    36    1
    37    36    37    1
    38    13    38    1
@<TRIPOS>SUBSTRUCTURE
     1 1           1 GROUP             0 ****  ****    0  
@<TRIPOS>MOLECULE
Molecule Name_00001_00102
    38    38     1     0     0
SMALL
NO_CHARGES
****
Generated from the CSD

@<TRIPOS>ATOM
     1 C5      -4.7252   0.5849  -1.0754   C.ar      1 1      0.0000
     2 C4      -4.4814   1.3505   0.0704   C.ar      1 1      0.0000
     3 C3      -3.3176   1.1412   0.8180   C.ar      1 1      0.0000
     4 C8      -2.3864   0.1656   0.4292   C.ar      1 1      0.0000
     5 C7      -2.6426  -0.6032  -0.7164   C.ar      1 1      0.0000
     6 C6      -3.8064  -0.3958  -1.4650   C.ar      1 1      0.0000
     7 H4      -5.1985   2.1022   0.3842   H         1 1      0.0000
     8 C9      -1.0890  -0.0100   1.2012   C.3       1 1      0.0000
     9 H7      -1.9386  -1.3760  -1.0169   H         1 1      0.0000
    10 H6      -3.9987  -1.0014  -2.3448   H         1 1      0.0000
    11 C10     -0.2486  -1.1475   0.5713   C.3       1 1      0.0000
    12 H9A     -0.5079   0.9188   1.1912   H         1 1      0.0000
    13 C11      1.0585  -1.3963   1.2697   C.3       1 1      0.0000
    14 C12      2.0855  -0.2521   1.2309   C.3       1 1      0.0000
    15 H12A     2.8707  -0.4497   1.9743   H         1 1      0.0000
    16 C13      2.7456   0.0759  -0.0913   C.2       1 1      0.0000
    17 C14      3.7338   1.2054  -0.1145   C.3       1 1      0.0000
    18 H14B     4.4072   1.0751  -0.9690   H         1 1      0.0000
    19 H14A     4.3398   1.2142   0.7960   H         1 1      0.0000
    20 N        2.4633  -0.6299  -1.1465   N.pl3     1 1      0.0000
    21 HN       1.7904  -1.4175  -0.9723   H         1 1      0.0000
    22 C        2.9977  -0.4274  -2.5254   C.3       1 1      0.0000
    23 H1A      2.6451  -1.2588  -3.1373   H         1 1      0.0000
    24 H1C      2.6187   0.5136  -2.9369   H         1 1      0.0000
    25 H1B      4.0903  -0.4185  -2.5142   H         1 1      0.0000
    26 H10A    -0.8277  -2.0850   0.5640   H         1 1      0.0000
    27 H10B    -0.0438  -0.9210  -0.4873   H         1 1      0.0000
    28 H9B     -1.2959  -0.2492   2.2501   H         1 1      0.0000
    29 H5      -5.6293   0.7438  -1.6538   H         1 1      0.0000
    30 H3      -3.1407   1.7294   1.7159   H         1 1      0.0000
    31 H12B     1.5825   0.6626   1.5855   H         1 1      0.0000
    32 C15      2.9935   2.5783  -0.2608   C.3       1 1      0.0000
    33 H15A     2.4196   2.6241  -1.1915   H         1 1      0.0000
    34 H15B     2.3174   2.7591   0.5803   H         1 1      0.0000
    35 H15C     3.7397   3.3779  -0.2813   H         1 1      0.0000
    36 O2       0.7860  -1.7008   2.6234   O.3       1 1      0.0000
    37 H21      0.2139  -2.5110   2.6718   H         1 1      0.0000
    38 H22      1.5180  -2.2732   0.8161   H         1 1      0.0000
@<TRIPOS>BOND
     1     1     2   ar
     2     1     6   ar
     3     1    29    1
     4     2     3   ar
     5     2     7    1
     6     3     4   ar
     7     3    30    1
     8     4     5   ar
     9     4     8    1
    10     5     6   ar
    11     5     9    1
    12     6    10    1
    13     8    11    1
    14     8    12    1
    15     8    28    1
    16    11    13    1
    17    11    26    1
    18    11    27    1
    19    13    14    1
    20    14    15    1
    21    14    16    1
    22    14    31    1
    23    16    17    1
    24    16    20    2
    25    17    18    1
    26    17    19    1
    27    17    32    1
    28    20    21    1
    29    20    22    1
    30    22    23    1
    31    22    24    1
    32    22    25    1
    33    32    33    1
    34    32    34    1
    35    32    35    1
    36    13    36    1
    37    36    37    1
    38    13    38    1
@<TRIPOS>SUBSTRUCTURE
     1 1           1 GROUP             0 ****  ****    0  
@<TRIPOS>MOLECULE
Molecule Name_00001_00103
    38    38     1     0     0
SMALL
NO_CHARGES
****
Generated from the CSD

@<TRIPOS>ATOM
     1 C5      -5.6640   0.1323  -0.4300   C.ar      1 1      0.0000
     2 C4      -5.4072   0.0533   0.9434   C.ar      1 1      0.0000
     3 C3      -4.0893  -0.0245   1.4063   C.ar      1 1      0.0000
     4 C8      -3.0154  -0.0245   0.5026   C.ar      1 1      0.0000
     5 C7      -3.2820   0.0467  -0.8732   C.ar      1 1      0.0000
     6 C6      -4.5995   0.1239  -1.3381   C.ar      1 1      0.0000
     7 H4      -6.2307   0.0449   1.6503   H         1 1      0.0000
     8 C9      -1.5830  -0.0359   1.0106   C.3       1 1      0.0000
     9 H7      -2.4594   0.0273  -1.5846   H         1 1      0.0000
    10 H6      -4.7949   0.1705  -2.4046   H         1 1      0.0000
    11 C10     -0.5981  -0.0373  -0.1839   C.3       1 1      0.0000
    12 H9A     -1.3914   0.8418   1.6379   H         1 1      0.0000
    13 C11      0.8491  -0.0484   0.2210   C.3       1 1      0.0000
    14 C12      1.8798  -0.1023  -0.9192   C.3       1 1      0.0000
    15 H12A     1.7679   0.7935  -1.5463   H         1 1      0.0000
    16 C13      3.3418  -0.2586  -0.5589   C.2       1 1      0.0000
    17 C14      4.2051   0.9684  -0.6056   C.3       1 1      0.0000
    18 H14B     3.9140   1.5790  -1.4675   H         1 1      0.0000
    19 H14A     5.2594   0.7012  -0.7204   H         1 1      0.0000
    20 N        3.7980  -1.4231  -0.2025   N.pl3     1 1      0.0000
    21 HN       3.0710  -2.1808  -0.1704   H         1 1      0.0000
    22 C        5.2076  -1.7583   0.1561   C.3       1 1      0.0000
    23 H1A      5.2172  -2.7893   0.5123   H         1 1      0.0000
    24 H1C      5.8469  -1.6731  -0.7285   H         1 1      0.0000
    25 H1B      5.5693  -1.0947   0.9453   H         1 1      0.0000
    26 H10A    -0.7894  -0.9094  -0.8297   H         1 1      0.0000
    27 H10B    -0.7782   0.8440  -0.8201   H         1 1      0.0000
    28 H9B     -1.4029  -0.9206   1.6312   H         1 1      0.0000
    29 H5      -6.6859   0.1889  -0.7903   H         1 1      0.0000
    30 H3      -3.8968  -0.1004   2.4742   H         1 1      0.0000
    31 H12B     1.6092  -0.9448  -1.5768   H         1 1      0.0000
    32 C15      4.0219   1.8171   0.6984   C.3       1 1      0.0000
    33 H15A     3.1034   2.4110   0.6613   H         1 1      0.0000
    34 H15B     3.9956   1.1812   1.5885   H         1 1      0.0000
    35 H15C     4.8681   2.5043   0.7906   H         1 1      0.0000
    36 O2       1.1019   1.1098   0.9918   O.3       1 1      0.0000
    37 H21      0.6293   1.0379   1.8622   H         1 1      0.0000
    38 H22      1.0108  -0.9160   0.8589   H         1 1      0.0000
@<TRIPOS>BOND
     1     1     2   ar
     2     1     6   ar
     3     1    29    1
     4     2     3   ar
     5     2     7    1
     6     3     4   ar
     7     3    30    1
     8     4     5   ar
     9     4     8    1
    10     5     6   ar
    11     5     9    1
    12     6    10    1
    13     8    11    1
    14     8    12    1
    15     8    28    1
    16    11    13    1
    17    11    26    1
    18    11    27    1
    19    13    14    1
    20    14    15    1
    21    14    16    1
    22    14    31    1
    23    16    17    1
    24    16    20    2
    25    17    18    1
    26    17    19    1
    27    17    32    1
    28    20    21    1
    29    20    22    1
    30    22    23    1
    31    22    24    1
    32    22    25    1
    33    32    33    1
    34    32    34    1
    35    32    35    1
    36    13    36    1
    37    36    37    1
    38    13    38    1
@<TRIPOS>SUBSTRUCTURE
     1 1           1 GROUP             0 ****  ****    0  
@<TRIPOS>MOLECULE
Molecule Name_00001_00104
    38    38     1     0     0
SMALL
NO_CHARGES
****
Generated from the CSD

@<TRIPOS>ATOM
     1 C5      -5.6258  -0.0448  -0.1766   C.ar      1 1      0.0000
     2 C4      -5.0494   0.4182   1.0117   C.ar      1 1      0.0000
     3 C3      -3.6652   0.6040   1.0928   C.ar      1 1      0.0000
     4 C8      -2.8432   0.3291  -0.0113   C.ar      1 1      0.0000
     5 C7      -3.4284  -0.1426  -1.1962   C.ar      1 1      0.0000
     6 C6      -4.8126  -0.3296  -1.2790   C.ar      1 1      0.0000
     7 H4      -5.6750   0.6264   1.8737   H         1 1      0.0000
     8 C9      -1.3493   0.6005   0.0558   C.3       1 1      0.0000
     9 H7      -2.8002  -0.3783  -2.0523   H         1 1      0.0000
    10 H6      -5.2540  -0.7025  -2.1977   H         1 1      0.0000
    11 C10     -0.6152  -0.6258   0.6509   C.3       1 1      0.0000
    12 H9A     -0.9524   0.8112  -0.9435   H         1 1      0.0000
    13 C11      0.8736  -0.4508   0.7573   C.3       1 1      0.0000
    14 C12      1.6415  -0.2910  -0.5657   C.3       1 1      0.0000
    15 H12A     1.2859   0.6132  -1.0796   H         1 1      0.0000
    16 C13      3.1541  -0.2548  -0.5182   C.2       1 1      0.0000
    17 C14      3.8221   1.0845  -0.6315   C.3       1 1      0.0000
    18 H14B     3.2807   1.6944  -1.3632   H         1 1      0.0000
    19 H14A     4.8547   0.9791  -0.9762   H         1 1      0.0000
    20 N        3.8217  -1.3596  -0.3599   N.pl3     1 1      0.0000
    21 HN       3.2220  -2.2148  -0.2482   H         1 1      0.0000
    22 C        5.3064  -1.5076  -0.3189   C.3       1 1      0.0000
    23 H1A      5.5238  -2.5449  -0.0606   H         1 1      0.0000
    24 H1C      5.7303  -1.2812  -1.3026   H         1 1      0.0000
    25 H1B      5.7358  -0.8444   0.4359   H         1 1      0.0000
    26 H10A    -1.0147  -0.8557   1.6519   H         1 1      0.0000
    27 H10B    -0.8212  -1.5195   0.0405   H         1 1      0.0000
    28 H9B     -1.1466   1.4812   0.6751   H         1 1      0.0000
    29 H5      -6.6988  -0.1928  -0.2393   H         1 1      0.0000
    30 H3      -3.2215   0.9501   2.0237   H         1 1      0.0000
    31 H12B     1.3510  -1.1253  -1.2254   H         1 1      0.0000
    32 C15      3.8069   1.8229   0.7501   C.3       1 1      0.0000
    33 H15A     2.8320   2.2795   0.9470   H         1 1      0.0000
    34 H15B     4.0496   1.1406   1.5703   H         1 1      0.0000
    35 H15C     4.5576   2.6185   0.7300   H         1 1      0.0000
    36 O2       1.1295   0.6863   1.5577   O.3       1 1      0.0000
    37 H21      0.7368   0.5514   2.4597   H         1 1      0.0000
    38 H22      1.2761  -1.3207   1.2742   H         1 1      0.0000
@<TRIPOS>BOND
     1     1     2   ar
     2     1     6   ar
     3     1    29    1
     4     2     3   ar
     5     2     7    1
     6     3     4   ar
     7     3    30    1
     8     4     5   ar
     9     4     8    1
    10     5     6   ar
    11     5     9    1
    12     6    10    1
    13     8    11    1
    14     8    12    1
    15     8    28    1
    16    11    13    1
    17    11    26    1
    18    11    27    1
    19    13    14    1
    20    14    15    1
    21    14    16    1
    22    14    31    1
    23    16    17    1
    24    16    20    2
    25    17    18    1
    26    17    19    1
    27    17    32    1
    28    20    21    1
    29    20    22    1
    30    22    23    1
    31    22    24    1
    32    22    25    1
    33    32    33    1
    34    32    34    1
    35    32    35    1
    36    13    36    1
    37    36    37    1
    38    13    38    1
@<TRIPOS>SUBSTRUCTURE
     1 1           1 GROUP             0 ****  ****    0  
@<TRIPOS>MOLECULE
Molecule Name_00001_00105
    38    38     1     0     0
SMALL
NO_CHARGES
****
Generated from the CSD

@<TRIPOS>ATOM
     1 C5      -5.4818   0.7954  -0.5117   C.ar      1 1      0.0000
     2 C4      -4.8676   1.0827   0.7126   C.ar      1 1      0.0000
     3 C3      -3.6501   0.4786   1.0442   C.ar      1 1      0.0000
     4 C8      -3.0344  -0.4182   0.1571   C.ar      1 1      0.0000
     5 C7      -3.6611  -0.7069  -1.0647   C.ar      1 1      0.0000
     6 C6      -4.8791  -0.1042  -1.3979   C.ar      1 1      0.0000
     7 H4      -5.3389   1.7687   1.4089   H         1 1      0.0000
     8 C9      -1.6772  -1.0170   0.4878   C.3       1 1      0.0000
     9 H7      -3.2042  -1.4154  -1.7521   H         1 1      0.0000
    10 H6      -5.3593  -0.3406  -2.3420   H         1 1      0.0000
    11 C10     -0.6116   0.1029   0.5734   C.3       1 1      0.0000
    12 H9A     -1.7170  -1.5538   1.4421   H         1 1      0.0000
    13 C11      0.8039  -0.4006   0.5406   C.3       1 1      0.0000
    14 C12      1.9119   0.6656   0.5702   C.3       1 1      0.0000
    15 H12A     1.9819   1.0818   1.5852   H         1 1      0.0000
    16 C13      3.3005   0.2712   0.1144   C.2       1 1      0.0000
    17 C14      4.3616   1.3328   0.1170   C.3       1 1      0.0000
    18 H14B     5.3463   0.8553   0.1701   H         1 1      0.0000
    19 H14A     4.2563   1.9895   0.9853   H         1 1      0.0000
    20 N        3.5397  -0.9576  -0.2379   N.pl3     1 1      0.0000
    21 HN       2.7152  -1.6020  -0.1456   H         1 1      0.0000
    22 C        4.8349  -1.5078  -0.7356   C.3       1 1      0.0000
    23 H1A      4.7159  -2.5881  -0.8292   H         1 1      0.0000
    24 H1C      5.0680  -1.0812  -1.7165   H         1 1      0.0000
    25 H1B      5.6398  -1.2877  -0.0302   H         1 1      0.0000
    26 H10A    -0.7495   0.8190  -0.2527   H         1 1      0.0000
    27 H10B    -0.7551   0.6880   1.4958   H         1 1      0.0000
    28 H9B     -1.3810  -1.7426  -0.2777   H         1 1      0.0000
    29 H5      -6.4279   1.2605  -0.7682   H         1 1      0.0000
    30 H3      -3.1848   0.6946   2.0034   H         1 1      0.0000
    31 H12B     1.5837   1.5084  -0.0602   H         1 1      0.0000
    32 C15      4.2854   2.1869  -1.1941   C.3       1 1      0.0000
    33 H15A     4.4420   1.5673  -2.0826   H         1 1      0.0000
    34 H15B     3.3209   2.6957  -1.2838   H         1 1      0.0000
    35 H15C     5.0736   2.9449  -1.1644   H         1 1      0.0000
    36 O2       0.9919  -1.2651   1.6437   O.3       1 1      0.0000
    37 H21      0.4507  -2.0877   1.5156   H         1 1      0.0000
    38 H22      0.9288  -0.9871  -0.3685   H         1 1      0.0000
@<TRIPOS>BOND
     1     1     2   ar
     2     1     6   ar
     3     1    29    1
     4     2     3   ar
     5     2     7    1
     6     3     4   ar
     7     3    30    1
     8     4     5   ar
     9     4     8    1
    10     5     6   ar
    11     5     9    1
    12     6    10    1
    13     8    11    1
    14     8    12    1
    15     8    28    1
    16    11    13    1
    17    11    26    1
    18    11    27    1
    19    13    14    1
    20    14    15    1
    21    14    16    1
    22    14    31    1
    23    16    17    1
    24    16    20    2
    25    17    18    1
    26    17    19    1
    27    17    32    1
    28    20    21    1
    29    20    22    1
    30    22    23    1
    31    22    24    1
    32    22    25    1
    33    32    33    1
    34    32    34    1
    35    32    35    1
    36    13    36    1
    37    36    37    1
    38    13    38    1
@<TRIPOS>SUBSTRUCTURE
     1 1           1 GROUP             0 ****  ****    0  
@<TRIPOS>MOLECULE
Molecule Name_00001_00106
    38    38     1     0     0
SMALL
NO_CHARGES
****
Generated from the CSD

@<TRIPOS>ATOM
     1 C5      -5.5687   0.6766   0.0126   C.ar      1 1      0.0000
     2 C4      -5.1132   0.2125   1.2519   C.ar      1 1      0.0000
     3 C3      -3.7765  -0.1691   1.4086   C.ar      1 1      0.0000
     4 C8      -2.8818  -0.0914   0.3299   C.ar      1 1      0.0000
     5 C7      -3.3487   0.3673  -0.9113   C.ar      1 1      0.0000
     6 C6      -4.6855   0.7489  -1.0703   C.ar      1 1      0.0000
     7 H4      -5.7985   0.1413   2.0904   H         1 1      0.0000
     8 C9      -1.4144  -0.4375   0.5215   C.3       1 1      0.0000
     9 H7      -2.6702   0.4133  -1.7603   H         1 1      0.0000
    10 H6      -5.0381   1.0946  -2.0366   H         1 1      0.0000
    11 C10     -0.6532  -0.2738  -0.8167   C.3       1 1      0.0000
    12 H9A     -0.9623   0.2134   1.2781   H         1 1      0.0000
    13 C11      0.8120  -0.5953  -0.7263   C.3       1 1      0.0000
    14 C12      1.6589   0.3139   0.1802   C.3       1 1      0.0000
    15 H12A     1.2877   0.2374   1.2120   H         1 1      0.0000
    16 C13      3.1599   0.1182   0.1925   C.2       1 1      0.0000
    17 C14      3.9347   0.6028  -0.9982   C.3       1 1      0.0000
    18 H14B     3.3612   0.3942  -1.9082   H         1 1      0.0000
    19 H14A     4.8952   0.0856  -1.0772   H         1 1      0.0000
    20 N        3.7309  -0.4318   1.2234   N.pl3     1 1      0.0000
    21 HN       3.0709  -0.6790   2.0023   H         1 1      0.0000
    22 C        5.1854  -0.7234   1.3887   C.3       1 1      0.0000
    23 H1A      5.3330  -1.0789   2.4094   H         1 1      0.0000
    24 H1C      5.4910  -1.5035   0.6840   H         1 1      0.0000
    25 H1B      5.7772   0.1808   1.2266   H         1 1      0.0000
    26 H10A    -1.1069  -0.9147  -1.5898   H         1 1      0.0000
    27 H10B    -0.7644   0.7574  -1.1882   H         1 1      0.0000
    28 H9B     -1.3064  -1.4680   0.8773   H         1 1      0.0000
    29 H5      -6.6061   0.9693  -0.1111   H         1 1      0.0000
    30 H3      -3.4319  -0.5428   2.3704   H         1 1      0.0000
    31 H12B     1.4638   1.3580  -0.1151   H         1 1      0.0000
    32 C15      4.1810   2.1468  -0.9002   C.3       1 1      0.0000
    33 H15A     3.2370   2.6999  -0.8747   H         1 1      0.0000
    34 H15B     4.7644   2.4025  -0.0106   H         1 1      0.0000
    35 H15C     4.7404   2.4688  -1.7835   H         1 1      0.0000
    36 O2       0.9456  -1.9261  -0.2674   O.3       1 1      0.0000
    37 H21      0.5000  -2.5426  -0.9057   H         1 1      0.0000
    38 H22      1.2276  -0.5452  -1.7316   H         1 1      0.0000
@<TRIPOS>BOND
     1     1     2   ar
     2     1     6   ar
     3     1    29    1
     4     2     3   ar
     5     2     7    1
     6     3     4   ar
     7     3    30    1
     8     4     5   ar
     9     4     8    1
    10     5     6   ar
    11     5     9    1
    12     6    10    1
    13     8    11    1
    14     8    12    1
    15     8    28    1
    16    11    13    1
    17    11    26    1
    18    11    27    1
    19    13    14    1
    20    14    15    1
    21    14    16    1
    22    14    31    1
    23    16    17    1
    24    16    20    2
    25    17    18    1
    26    17    19    1
    27    17    32    1
    28    20    21    1
    29    20    22    1
    30    22    23    1
    31    22    24    1
    32    22    25    1
    33    32    33    1
    34    32    34    1
    35    32    35    1
    36    13    36    1
    37    36    37    1
    38    13    38    1
@<TRIPOS>SUBSTRUCTURE
     1 1           1 GROUP             0 ****  ****    0  
@<TRIPOS>MOLECULE
Molecule Name_00001_00107
    38    38     1     0     0
SMALL
NO_CHARGES
****
Generated from the CSD

@<TRIPOS>ATOM
     1 C5      -5.5876   0.5505   0.0322   C.ar      1 1      0.0000
     2 C4      -5.1463  -0.1532   1.1586   C.ar      1 1      0.0000
     3 C3      -3.7956  -0.4941   1.2866   C.ar      1 1      0.0000
     4 C8      -2.8727  -0.1362   0.2915   C.ar      1 1      0.0000
     5 C7      -3.3250   0.5621  -0.8385   C.ar      1 1      0.0000
     6 C6      -4.6757   0.9035  -0.9686   C.ar      1 1      0.0000
     7 H4      -5.8530  -0.4414   1.9301   H         1 1      0.0000
     8 C9      -1.3947  -0.4439   0.4669   C.3       1 1      0.0000
     9 H7      -2.6234   0.8277  -1.6261   H         1 1      0.0000
    10 H6      -5.0164   1.4366  -1.8504   H         1 1      0.0000
    11 C10     -0.6016   0.0486  -0.7681   C.3       1 1      0.0000
    12 H9A     -1.0053   0.0450   1.3669   H         1 1      0.0000
    13 C11      0.8759  -0.2128  -0.6859   C.3       1 1      0.0000
    14 C12      1.6397   0.5138   0.4340   C.3       1 1      0.0000
    15 H12A     1.2406   0.1930   1.4066   H         1 1      0.0000
    16 C13      3.1484   0.3939   0.4691   C.2       1 1      0.0000
    17 C14      3.9319   1.1671  -0.5513   C.3       1 1      0.0000
    18 H14B     4.9507   1.3219  -0.1790   H         1 1      0.0000
    19 H14A     3.4831   2.1487  -0.7281   H         1 1      0.0000
    20 N        3.7165  -0.3418   1.3786   N.pl3     1 1      0.0000
    21 HN       3.0471  -0.7871   2.0547   H         1 1      0.0000
    22 C        5.1793  -0.5911   1.5398   C.3       1 1      0.0000
    23 H1A      5.3142  -1.1558   2.4633   H         1 1      0.0000
    24 H1C      5.5517  -1.1802   0.6956   H         1 1      0.0000
    25 H1B      5.7231   0.3544   1.6059   H         1 1      0.0000
    26 H10A    -0.9928  -0.4269  -1.6820   H         1 1      0.0000
    27 H10B    -0.7598   1.1298  -0.9093   H         1 1      0.0000
    28 H9B     -1.2392  -1.5210   0.5928   H         1 1      0.0000
    29 H5      -6.6357   0.8122  -0.0698   H         1 1      0.0000
    30 H3      -3.4612  -1.0539   2.1573   H         1 1      0.0000
    31 H12B     1.3945   1.5865   0.3662   H         1 1      0.0000
    32 C15      4.0033   0.3761  -1.9017   C.3       1 1      0.0000
    33 H15A     4.0503  -0.7035  -1.7288   H         1 1      0.0000
    34 H15B     3.1409   0.5947  -2.5386   H         1 1      0.0000
    35 H15C     4.9104   0.6753  -2.4350   H         1 1      0.0000
    36 O2       1.0710  -1.6039  -0.5243   O.3       1 1      0.0000
    37 H21      0.6822  -2.0851  -1.3010   H         1 1      0.0000
    38 H22      1.3201   0.0785  -1.6366   H         1 1      0.0000
@<TRIPOS>BOND
     1     1     2   ar
     2     1     6   ar
     3     1    29    1
     4     2     3   ar
     5     2     7    1
     6     3     4   ar
     7     3    30    1
     8     4     5   ar
     9     4     8    1
    10     5     6   ar
    11     5     9    1
    12     6    10    1
    13     8    11    1
    14     8    12    1
    15     8    28    1
    16    11    13    1
    17    11    26    1
    18    11    27    1
    19    13    14    1
    20    14    15    1
    21    14    16    1
    22    14    31    1
    23    16    17    1
    24    16    20    2
    25    17    18    1
    26    17    19    1
    27    17    32    1
    28    20    21    1
    29    20    22    1
    30    22    23    1
    31    22    24    1
    32    22    25    1
    33    32    33    1
    34    32    34    1
    35    32    35    1
    36    13    36    1
    37    36    37    1
    38    13    38    1
@<TRIPOS>SUBSTRUCTURE
     1 1           1 GROUP             0 ****  ****    0  
@<TRIPOS>MOLECULE
Molecule Name_00001_00108
    38    38     1     0     0
SMALL
NO_CHARGES
****
Generated from the CSD

@<TRIPOS>ATOM
     1 C5      -5.5891   0.2219  -0.4135   C.ar      1 1      0.0000
     2 C4      -5.0508   1.3733   0.1725   C.ar      1 1      0.0000
     3 C3      -3.6914   1.4228   0.4992   C.ar      1 1      0.0000
     4 C8      -2.8566   0.3237   0.2444   C.ar      1 1      0.0000
     5 C7      -3.4060  -0.8297  -0.3359   C.ar      1 1      0.0000
     6 C6      -4.7655  -0.8815  -0.6628   C.ar      1 1      0.0000
     7 H4      -5.6892   2.2259   0.3808   H         1 1      0.0000
     8 C9      -1.3667   0.4065   0.5332   C.3       1 1      0.0000
     9 H7      -2.7738  -1.6955  -0.5200   H         1 1      0.0000
    10 H6      -5.1819  -1.7813  -1.1038   H         1 1      0.0000
    11 C10     -0.6820  -0.9334   0.1688   C.3       1 1      0.0000
    12 H9A     -0.9084   1.2170  -0.0443   H         1 1      0.0000
    13 C11      0.7993  -0.9478   0.4211   C.3       1 1      0.0000
    14 C12      1.6469   0.0258  -0.4151   C.3       1 1      0.0000
    15 H12A     1.3450   1.0564  -0.1805   H         1 1      0.0000
    16 C13      3.1546  -0.0685  -0.3176   C.2       1 1      0.0000
    17 C14      3.8038   0.4361   0.9381   C.3       1 1      0.0000
    18 H14B     4.7839  -0.0403   1.0513   H         1 1      0.0000
    19 H14A     3.2025   0.1869   1.8171   H         1 1      0.0000
    20 N        3.8330  -0.5952  -1.2942   N.pl3     1 1      0.0000
    21 HN       3.2436  -0.9478  -2.0890   H         1 1      0.0000
    22 C        5.3163  -0.7407  -1.3744   C.3       1 1      0.0000
    23 H1A      5.5391  -1.3227  -2.2697   H         1 1      0.0000
    24 H1C      5.7831   0.2462  -1.4565   H         1 1      0.0000
    25 H1B      5.6972  -1.2633  -0.4935   H         1 1      0.0000
    26 H10A    -1.1433  -1.7590   0.7345   H         1 1      0.0000
    27 H10B    -0.8600  -1.1696  -0.8925   H         1 1      0.0000
    28 H9B     -1.1927   0.6273   1.5921   H         1 1      0.0000
    29 H5      -6.6440   0.1811  -0.6638   H         1 1      0.0000
    30 H3      -3.2820   2.3151   0.9679   H         1 1      0.0000
    31 H12B     1.3743  -0.1159  -1.4739   H         1 1      0.0000
    32 C15      4.0029   1.9883   0.8663   C.3       1 1      0.0000
    33 H15A     4.6472   2.2688   0.0273   H         1 1      0.0000
    34 H15B     3.0460   2.5095   0.7666   H         1 1      0.0000
    35 H15C     4.4829   2.3228   1.7907   H         1 1      0.0000
    36 O2       1.0182  -0.6630   1.7887   O.3       1 1      0.0000
    37 H21      0.5706  -1.3523   2.3461   H         1 1      0.0000
    38 H22      1.1613  -1.9566   0.2278   H         1 1      0.0000
@<TRIPOS>BOND
     1     1     2   ar
     2     1     6   ar
     3     1    29    1
     4     2     3   ar
     5     2     7    1
     6     3     4   ar
     7     3    30    1
     8     4     5   ar
     9     4     8    1
    10     5     6   ar
    11     5     9    1
    12     6    10    1
    13     8    11    1
    14     8    12    1
    15     8    28    1
    16    11    13    1
    17    11    26    1
    18    11    27    1
    19    13    14    1
    20    14    15    1
    21    14    16    1
    22    14    31    1
    23    16    17    1
    24    16    20    2
    25    17    18    1
    26    17    19    1
    27    17    32    1
    28    20    21    1
    29    20    22    1
    30    22    23    1
    31    22    24    1
    32    22    25    1
    33    32    33    1
    34    32    34    1
    35    32    35    1
    36    13    36    1
    37    36    37    1
    38    13    38    1
@<TRIPOS>SUBSTRUCTURE
     1 1           1 GROUP             0 ****  ****    0  
@<TRIPOS>MOLECULE
Molecule Name_00001_00109
    38    38     1     0     0
SMALL
NO_CHARGES
****
Generated from the CSD

@<TRIPOS>ATOM
     1 C5      -5.0726   0.4223  -1.0713   C.ar      1 1      0.0000
     2 C4      -4.5095  -0.8555  -1.1652   C.ar      1 1      0.0000
     3 C3      -3.3633  -1.1716  -0.4281   C.ar      1 1      0.0000
     4 C8      -2.7681  -0.2153   0.4093   C.ar      1 1      0.0000
     5 C7      -3.3344   1.0659   0.4914   C.ar      1 1      0.0000
     6 C6      -4.4804   1.3842  -0.2456   C.ar      1 1      0.0000
     7 H4      -4.9573  -1.5999  -1.8157   H         1 1      0.0000
     8 C9      -1.5663  -0.5831   1.2639   C.3       1 1      0.0000
     9 H7      -2.8711   1.8220   1.1213   H         1 1      0.0000
    10 H6      -4.9056   2.3806  -0.1810   H         1 1      0.0000
    11 C10     -0.2616  -0.3889   0.4534   C.3       1 1      0.0000
    12 H9A     -1.5304   0.0404   2.1642   H         1 1      0.0000
    13 C11      0.9859  -0.7326   1.2174   C.3       1 1      0.0000
    14 C12      2.1381   0.2834   1.1420   C.3       1 1      0.0000
    15 H12A     2.8779   0.0449   1.9192   H         1 1      0.0000
    16 C13      2.8621   0.4517  -0.1768   C.2       1 1      0.0000
    17 C14      3.9837   1.4476  -0.2329   C.3       1 1      0.0000
    18 H14B     3.7116   2.3277   0.3604   H         1 1      0.0000
    19 H14A     4.1656   1.7749  -1.2605   H         1 1      0.0000
    20 N        2.5167  -0.2730  -1.1999   N.pl3     1 1      0.0000
    21 HN       1.7473  -0.9605  -1.0027   H         1 1      0.0000
    22 C        3.1016  -0.2169  -2.5720   C.3       1 1      0.0000
    23 H1A      2.6613  -1.0321  -3.1479   H         1 1      0.0000
    24 H1C      2.8517   0.7385  -3.0443   H         1 1      0.0000
    25 H1B      4.1864  -0.3421  -2.5304   H         1 1      0.0000
    26 H10A    -0.2923  -0.9998  -0.4633   H         1 1      0.0000
    27 H10B    -0.1859   0.6546   0.1081   H         1 1      0.0000
    28 H9B     -1.6360  -1.6247   1.5963   H         1 1      0.0000
    29 H5      -5.9594   0.6697  -1.6454   H         1 1      0.0000
    30 H3      -2.9218  -2.1619  -0.5165   H         1 1      0.0000
    31 H12B     1.7353   1.2695   1.4264   H         1 1      0.0000
    32 C15      5.2963   0.8282   0.3566   C.3       1 1      0.0000
    33 H15A     5.1650   0.5393   1.4040   H         1 1      0.0000
    34 H15B     5.6156  -0.0488  -0.2144   H         1 1      0.0000
    35 H15C     6.0904   1.5792   0.3076   H         1 1      0.0000
    36 O2       0.6384  -0.9076   2.5768   O.3       1 1      0.0000
    37 H21      0.2155  -1.7978   2.6985   H         1 1      0.0000
    38 H22      1.3558  -1.6855   0.8419   H         1 1      0.0000
@<TRIPOS>BOND
     1     1     2   ar
     2     1     6   ar
     3     1    29    1
     4     2     3   ar
     5     2     7    1
     6     3     4   ar
     7     3    30    1
     8     4     5   ar
     9     4     8    1
    10     5     6   ar
    11     5     9    1
    12     6    10    1
    13     8    11    1
    14     8    12    1
    15     8    28    1
    16    11    13    1
    17    11    26    1
    18    11    27    1
    19    13    14    1
    20    14    15    1
    21    14    16    1
    22    14    31    1
    23    16    17    1
    24    16    20    2
    25    17    18    1
    26    17    19    1
    27    17    32    1
    28    20    21    1
    29    20    22    1
    30    22    23    1
    31    22    24    1
    32    22    25    1
    33    32    33    1
    34    32    34    1
    35    32    35    1
    36    13    36    1
    37    36    37    1
    38    13    38    1
@<TRIPOS>SUBSTRUCTURE
     1 1           1 GROUP             0 ****  ****    0  
@<TRIPOS>MOLECULE
Molecule Name_00001_00110
    38    38     1     0     0
SMALL
NO_CHARGES
****
Generated from the CSD

@<TRIPOS>ATOM
     1 C5      -4.9026   0.7999  -1.0085   C.ar      1 1      0.0000
     2 C4      -4.4341  -0.4908  -1.2792   C.ar      1 1      0.0000
     3 C3      -3.3283  -0.9943  -0.5858   C.ar      1 1      0.0000
     4 C8      -2.6796  -0.2142   0.3842   C.ar      1 1      0.0000
     5 C7      -3.1509   1.0818   0.6436   C.ar      1 1      0.0000
     6 C6      -4.2563   1.5874  -0.0494   C.ar      1 1      0.0000
     7 H4      -4.9236  -1.0994  -2.0327   H         1 1      0.0000
     8 C9      -1.5245  -0.7895   1.1870   C.3       1 1      0.0000
     9 H7      -2.6446   1.7036   1.3786   H         1 1      0.0000
    10 H6      -4.6076   2.5939   0.1533   H         1 1      0.0000
    11 C10     -0.1941  -0.5822   0.4228   C.3       1 1      0.0000
    12 H9A     -1.4593  -0.3043   2.1672   H         1 1      0.0000
    13 C11      1.0101  -1.1244   1.1397   C.3       1 1      0.0000
    14 C12      2.2356  -0.1984   1.2190   C.3       1 1      0.0000
    15 H12A     2.9411  -0.6000   1.9601   H         1 1      0.0000
    16 C13      2.9944   0.0994  -0.0566   C.2       1 1      0.0000
    17 C14      4.1875   1.0052   0.0388   C.3       1 1      0.0000
    18 H14B     4.8516   0.8139  -0.8115   H         1 1      0.0000
    19 H14A     4.7503   0.8160   0.9573   H         1 1      0.0000
    20 N        2.6154  -0.4447  -1.1753   N.pl3     1 1      0.0000
    21 HN       1.7937  -1.0927  -1.0841   H         1 1      0.0000
    22 C        3.2283  -0.2395  -2.5207   C.3       1 1      0.0000
    23 H1A      2.7396  -0.9290  -3.2104   H         1 1      0.0000
    24 H1C      3.0586   0.7895  -2.8539   H         1 1      0.0000
    25 H1B      4.2998  -0.4513  -2.4888   H         1 1      0.0000
    26 H10A    -0.2529  -1.0530  -0.5719   H         1 1      0.0000
    27 H10B    -0.0349   0.4909   0.2304   H         1 1      0.0000
    28 H9B     -1.6773  -1.8594   1.3669   H         1 1      0.0000
    29 H5      -5.7579   1.1927  -1.5484   H         1 1      0.0000
    30 H3      -2.9598  -1.9927  -0.8110   H         1 1      0.0000
    31 H12B     1.9017   0.7652   1.6380   H         1 1      0.0000
    32 C15      3.7404   2.5061   0.0016   C.3       1 1      0.0000
    33 H15A     3.2206   2.7438  -0.9317   H         1 1      0.0000
    34 H15B     3.0841   2.7483   0.8430   H         1 1      0.0000
    35 H15C     4.6308   3.1383   0.0658   H         1 1      0.0000
    36 O2       0.6253  -1.4631   2.4575   O.3       1 1      0.0000
    37 H21      0.1355  -2.3269   2.4476   H         1 1      0.0000
    38 H22      1.3153  -2.0398   0.6351   H         1 1      0.0000
@<TRIPOS>BOND
     1     1     2   ar
     2     1     6   ar
     3     1    29    1
     4     2     3   ar
     5     2     7    1
     6     3     4   ar
     7     3    30    1
     8     4     5   ar
     9     4     8    1
    10     5     6   ar
    11     5     9    1
    12     6    10    1
    13     8    11    1
    14     8    12    1
    15     8    28    1
    16    11    13    1
    17    11    26    1
    18    11    27    1
    19    13    14    1
    20    14    15    1
    21    14    16    1
    22    14    31    1
    23    16    17    1
    24    16    20    2
    25    17    18    1
    26    17    19    1
    27    17    32    1
    28    20    21    1
    29    20    22    1
    30    22    23    1
    31    22    24    1
    32    22    25    1
    33    32    33    1
    34    32    34    1
    35    32    35    1
    36    13    36    1
    37    36    37    1
    38    13    38    1
@<TRIPOS>SUBSTRUCTURE
     1 1           1 GROUP             0 ****  ****    0  
@<TRIPOS>MOLECULE
Molecule Name_00001_00111
    38    38     1     0     0
SMALL
NO_CHARGES
****
Generated from the CSD

@<TRIPOS>ATOM
     1 C5      -4.9899  -0.1651  -1.0594   C.ar      1 1      0.0000
     2 C4      -3.7600  -0.1927  -1.7266   C.ar      1 1      0.0000
     3 C3      -2.5694  -0.2818  -0.9975   C.ar      1 1      0.0000
     4 C8      -2.5952  -0.3440   0.4045   C.ar      1 1      0.0000
     5 C7      -3.8322  -0.3076   1.0659   C.ar      1 1      0.0000
     6 C6      -5.0240  -0.2178   0.3384   C.ar      1 1      0.0000
     7 H4      -3.7285  -0.1374  -2.8100   H         1 1      0.0000
     8 C9      -1.3055  -0.5138   1.1905   C.3       1 1      0.0000
     9 H7      -3.8646  -0.3349   2.1529   H         1 1      0.0000
    10 H6      -5.9749  -0.1822   0.8603   H         1 1      0.0000
    11 C10     -0.3199   0.6284   0.8428   C.3       1 1      0.0000
    12 H9A     -1.5081  -0.5031   2.2672   H         1 1      0.0000
    13 C11      0.9900   0.5452   1.5745   C.3       1 1      0.0000
    14 C12      2.2274   1.0707   0.8274   C.3       1 1      0.0000
    15 H12A     3.0566   1.1814   1.5405   H         1 1      0.0000
    16 C13      2.7250   0.2942  -0.3731   C.2       1 1      0.0000
    17 C14      3.9334   0.8212  -1.0907   C.3       1 1      0.0000
    18 H14B     3.8797   1.9149  -1.1279   H         1 1      0.0000
    19 H14A     3.9718   0.4488  -2.1183   H         1 1      0.0000
    20 N        2.1196  -0.7999  -0.7304   N.pl3     1 1      0.0000
    21 HN       1.3178  -1.0730  -0.1091   H         1 1      0.0000
    22 C        2.4581  -1.6676  -1.8969   C.3       1 1      0.0000
    23 H1A      1.8270  -2.5553  -1.8371   H         1 1      0.0000
    24 H1C      2.2490  -1.1348  -2.8301   H         1 1      0.0000
    25 H1B      3.5096  -1.9626  -1.8612   H         1 1      0.0000
    26 H10A    -0.1179   0.6359  -0.2405   H         1 1      0.0000
    27 H10B    -0.7832   1.6037   1.0615   H         1 1      0.0000
    28 H9B     -0.8397  -1.4783   0.9601   H         1 1      0.0000
    29 H5      -5.9137  -0.0922  -1.6238   H         1 1      0.0000
    30 H3      -1.6159  -0.2881  -1.5211   H         1 1      0.0000
    31 H12B     2.0050   2.0961   0.4891   H         1 1      0.0000
    32 C15      5.2425   0.4061  -0.3370   C.3       1 1      0.0000
    33 H15A     5.2617   0.8099   0.6800   H         1 1      0.0000
    34 H15B     5.3466  -0.6820  -0.2870   H         1 1      0.0000
    35 H15C     6.1021   0.8100  -0.8799   H         1 1      0.0000
    36 O2       0.8665   1.2634   2.7863   O.3       1 1      0.0000
    37 H21      0.1429   0.8632   3.3360   H         1 1      0.0000
    38 H22      1.1684  -0.5001   1.8225   H         1 1      0.0000
@<TRIPOS>BOND
     1     1     2   ar
     2     1     6   ar
     3     1    29    1
     4     2     3   ar
     5     2     7    1
     6     3     4   ar
     7     3    30    1
     8     4     5   ar
     9     4     8    1
    10     5     6   ar
    11     5     9    1
    12     6    10    1
    13     8    11    1
    14     8    12    1
    15     8    28    1
    16    11    13    1
    17    11    26    1
    18    11    27    1
    19    13    14    1
    20    14    15    1
    21    14    16    1
    22    14    31    1
    23    16    17    1
    24    16    20    2
    25    17    18    1
    26    17    19    1
    27    17    32    1
    28    20    21    1
    29    20    22    1
    30    22    23    1
    31    22    24    1
    32    22    25    1
    33    32    33    1
    34    32    34    1
    35    32    35    1
    36    13    36    1
    37    36    37    1
    38    13    38    1
@<TRIPOS>SUBSTRUCTURE
     1 1           1 GROUP             0 ****  ****    0  
@<TRIPOS>MOLECULE
Molecule Name_00001_00112
    38    38     1     0     0
SMALL
NO_CHARGES
****
Generated from the CSD

@<TRIPOS>ATOM
     1 C5      -4.8456   0.3848  -1.0900   C.ar      1 1      0.0000
     2 C4      -3.5937   0.4452  -1.7126   C.ar      1 1      0.0000
     3 C3      -2.4436   0.0681  -1.0109   C.ar      1 1      0.0000
     4 C8      -2.5323  -0.3725   0.3188   C.ar      1 1      0.0000
     5 C7      -3.7905  -0.4223   0.9380   C.ar      1 1      0.0000
     6 C6      -4.9418  -0.0450   0.2381   C.ar      1 1      0.0000
     7 H4      -3.5131   0.7918  -2.7378   H         1 1      0.0000
     8 C9      -1.2914  -0.8502   1.0549   C.3       1 1      0.0000
     9 H7      -3.8702  -0.7429   1.9744   H         1 1      0.0000
    10 H6      -5.9090  -0.0796   0.7291   H         1 1      0.0000
    11 C10     -0.2159   0.2635   1.0567   C.3       1 1      0.0000
    12 H9A     -1.5378  -1.1183   2.0883   H         1 1      0.0000
    13 C11      1.0534  -0.1178   1.7650   C.3       1 1      0.0000
    14 C12      2.3542   0.4941   1.2183   C.3       1 1      0.0000
    15 H12A     3.1583   0.3411   1.9518   H         1 1      0.0000
    16 C13      2.8470   0.0390  -0.1388   C.2       1 1      0.0000
    17 C14      4.1178   0.6465  -0.6573   C.3       1 1      0.0000
    18 H14B     4.5608  -0.0274  -1.3990   H         1 1      0.0000
    19 H14A     4.8429   0.7858   0.1495   H         1 1      0.0000
    20 N        2.1834  -0.8654  -0.7967   N.pl3     1 1      0.0000
    21 HN       1.3394  -1.2348  -0.2919   H         1 1      0.0000
    22 C        2.5101  -1.4050  -2.1495   C.3       1 1      0.0000
    23 H1A      1.8175  -2.2235  -2.3502   H         1 1      0.0000
    24 H1C      2.3774  -0.6229  -2.9040   H         1 1      0.0000
    25 H1B      3.5364  -1.7792  -2.1740   H         1 1      0.0000
    26 H10A     0.0313   0.5510   0.0220   H         1 1      0.0000
    27 H10B    -0.6199   1.1749   1.5258   H         1 1      0.0000
    28 H9B     -0.8838  -1.7482   0.5777   H         1 1      0.0000
    29 H5      -5.7378   0.6806  -1.6321   H         1 1      0.0000
    30 H3      -1.4717   0.1312  -1.4954   H         1 1      0.0000
    31 H12B     2.2171   1.5870   1.1710   H         1 1      0.0000
    32 C15      3.8268   2.0263  -1.3399   C.3       1 1      0.0000
    33 H15A     3.1452   1.9147  -2.1888   H         1 1      0.0000
    34 H15B     3.3948   2.7392  -0.6312   H         1 1      0.0000
    35 H15C     4.7694   2.4384  -1.7121   H         1 1      0.0000
    36 O2       0.9288   0.2493   3.1248   O.3       1 1      0.0000
    37 H21      0.1570  -0.2285   3.5273   H         1 1      0.0000
    38 H22      1.1489  -1.2016   1.7190   H         1 1      0.0000
@<TRIPOS>BOND
     1     1     2   ar
     2     1     6   ar
     3     1    29    1
     4     2     3   ar
     5     2     7    1
     6     3     4   ar
     7     3    30    1
     8     4     5   ar
     9     4     8    1
    10     5     6   ar
    11     5     9    1
    12     6    10    1
    13     8    11    1
    14     8    12    1
    15     8    28    1
    16    11    13    1
    17    11    26    1
    18    11    27    1
    19    13    14    1
    20    14    15    1
    21    14    16    1
    22    14    31    1
    23    16    17    1
    24    16    20    2
    25    17    18    1
    26    17    19    1
    27    17    32    1
    28    20    21    1
    29    20    22    1
    30    22    23    1
    31    22    24    1
    32    22    25    1
    33    32    33    1
    34    32    34    1
    35    32    35    1
    36    13    36    1
    37    36    37    1
    38    13    38    1
@<TRIPOS>SUBSTRUCTURE
     1 1           1 GROUP             0 ****  ****    0  
@<TRIPOS>MOLECULE
Molecule Name_00001_00113
    38    38     1     0     0
SMALL
NO_CHARGES
****
Generated from the CSD

@<TRIPOS>ATOM
     1 C5      -5.6101  -0.0732  -0.0737   C.ar      1 1      0.0000
     2 C4      -4.7875  -0.7201  -1.0029   C.ar      1 1      0.0000
     3 C3      -3.4028  -0.7563  -0.8067   C.ar      1 1      0.0000
     4 C8      -2.8262  -0.1470   0.3186   C.ar      1 1      0.0000
     5 C7      -3.6575   0.5064   1.2411   C.ar      1 1      0.0000
     6 C6      -5.0425   0.5443   1.0463   C.ar      1 1      0.0000
     7 H4      -5.2224  -1.1878  -1.8803   H         1 1      0.0000
     8 C9      -1.3303  -0.2501   0.5670   C.3       1 1      0.0000
     9 H7      -3.2210   0.9997   2.1068   H         1 1      0.0000
    10 H6      -5.6755   1.0593   1.7617   H         1 1      0.0000
    11 C10     -0.5909   0.8888  -0.1767   C.3       1 1      0.0000
    12 H9A     -1.1140  -0.1838   1.6390   H         1 1      0.0000
    13 C11      0.9000   0.8696   0.0101   C.3       1 1      0.0000
    14 C12      1.6588  -0.2943  -0.6495   C.3       1 1      0.0000
    15 H12A     1.5596  -0.2140  -1.7413   H         1 1      0.0000
    16 C13      3.1225  -0.4808  -0.3112   C.2       1 1      0.0000
    17 C14      3.9530   0.7532  -0.1100   C.3       1 1      0.0000
    18 H14B     3.6609   1.5066  -0.8500   H         1 1      0.0000
    19 H14A     5.0160   0.5366  -0.2487   H         1 1      0.0000
    20 N        3.6077  -1.6805  -0.1828   N.pl3     1 1      0.0000
    21 HN       2.9011  -2.4480  -0.3058   H         1 1      0.0000
    22 C        5.0239  -2.0434   0.1186   C.3       1 1      0.0000
    23 H1A      5.0591  -3.1234   0.2681   H         1 1      0.0000
    24 H1C      5.6654  -1.7720  -0.7260   H         1 1      0.0000
    25 H1B      5.3635  -1.5369   1.0252   H         1 1      0.0000
    26 H10A    -0.8110   0.8404  -1.2554   H         1 1      0.0000
    27 H10B    -0.9743   1.8662   0.1573   H         1 1      0.0000
    28 H9B     -0.9495  -1.2173   0.2209   H         1 1      0.0000
    29 H5      -6.6838  -0.0414  -0.2268   H         1 1      0.0000
    30 H3      -2.7673  -1.2480  -1.5399   H         1 1      0.0000
    31 H12B     1.1365  -1.2284  -0.3849   H         1 1      0.0000
    32 C15      3.7238   1.3400   1.3244   C.3       1 1      0.0000
    33 H15A     3.0568   2.2073   1.2980   H         1 1      0.0000
    34 H15B     3.3014   0.5900   1.9999   H         1 1      0.0000
    35 H15C     4.6875   1.6639   1.7282   H         1 1      0.0000
    36 O2       1.4249   2.0821  -0.4937   O.3       1 1      0.0000
    37 H21      1.0289   2.8457   0.0025   H         1 1      0.0000
    38 H22      1.1023   0.8368   1.0796   H         1 1      0.0000
@<TRIPOS>BOND
     1     1     2   ar
     2     1     6   ar
     3     1    29    1
     4     2     3   ar
     5     2     7    1
     6     3     4   ar
     7     3    30    1
     8     4     5   ar
     9     4     8    1
    10     5     6   ar
    11     5     9    1
    12     6    10    1
    13     8    11    1
    14     8    12    1
    15     8    28    1
    16    11    13    1
    17    11    26    1
    18    11    27    1
    19    13    14    1
    20    14    15    1
    21    14    16    1
    22    14    31    1
    23    16    17    1
    24    16    20    2
    25    17    18    1
    26    17    19    1
    27    17    32    1
    28    20    21    1
    29    20    22    1
    30    22    23    1
    31    22    24    1
    32    22    25    1
    33    32    33    1
    34    32    34    1
    35    32    35    1
    36    13    36    1
    37    36    37    1
    38    13    38    1
@<TRIPOS>SUBSTRUCTURE
     1 1           1 GROUP             0 ****  ****    0  
@<TRIPOS>MOLECULE
Molecule Name_00001_00114
    38    38     1     0     0
SMALL
NO_CHARGES
****
Generated from the CSD

@<TRIPOS>ATOM
     1 C5      -4.1808   0.1413   1.5689   C.ar      1 1      0.0000
     2 C4      -3.1896   1.1276   1.5114   C.ar      1 1      0.0000
     3 C3      -2.3170   1.1808   0.4192   C.ar      1 1      0.0000
     4 C8      -2.4254   0.2498  -0.6257   C.ar      1 1      0.0000
     5 C7      -3.4168  -0.7408  -0.5561   C.ar      1 1      0.0000
     6 C6      -4.2900  -0.7959   0.5358   C.ar      1 1      0.0000
     7 H4      -3.0923   1.8476   2.3176   H         1 1      0.0000
     8 C9      -1.5239   0.3539  -1.8448   C.3       1 1      0.0000
     9 H7      -3.4982  -1.4802  -1.3496   H         1 1      0.0000
    10 H6      -5.0481  -1.5711   0.5835   H         1 1      0.0000
    11 C10     -0.6228  -0.9010  -1.9451   C.3       1 1      0.0000
    12 H9A     -2.1225   0.4447  -2.7580   H         1 1      0.0000
    13 C11      0.4650  -0.9530  -0.9096   C.3       1 1      0.0000
    14 C12      1.5043   0.1800  -0.9494   C.3       1 1      0.0000
    15 H12A     0.9957   1.1393  -0.7782   H         1 1      0.0000
    16 C13      2.6962   0.0942  -0.0200   C.2       1 1      0.0000
    17 C14      3.6874   1.2209  -0.0535   C.3       1 1      0.0000
    18 H14B     3.8219   1.5493  -1.0901   H         1 1      0.0000
    19 H14A     4.6601   0.8981   0.3284   H         1 1      0.0000
    20 N        2.8161  -0.9208   0.7842   N.pl3     1 1      0.0000
    21 HN       2.0244  -1.6093   0.7321   H         1 1      0.0000
    22 C        3.9342  -1.1758   1.7396   C.3       1 1      0.0000
    23 H1A      3.6628  -2.0495   2.3336   H         1 1      0.0000
    24 H1C      4.8559  -1.3838   1.1868   H         1 1      0.0000
    25 H1B      4.0779  -0.3156   2.3979   H         1 1      0.0000
    26 H10A    -1.2351  -1.8132  -1.8582   H         1 1      0.0000
    27 H10B    -0.1602  -0.9523  -2.9436   H         1 1      0.0000
    28 H9B     -0.8950   1.2488  -1.7819   H         1 1      0.0000
    29 H5      -4.8558   0.0970   2.4173   H         1 1      0.0000
    30 H3      -1.5393   1.9407   0.3871   H         1 1      0.0000
    31 H12B     1.8920   0.2440  -1.9795   H         1 1      0.0000
    32 C15      3.1699   2.4313   0.7958   C.3       1 1      0.0000
    33 H15A     2.2222   2.8152   0.4058   H         1 1      0.0000
    34 H15B     3.0335   2.1535   1.8453   H         1 1      0.0000
    35 H15C     3.9096   3.2358   0.7455   H         1 1      0.0000
    36 O2      -0.1401  -0.9539   0.3684   O.3       1 1      0.0000
    37 H21     -0.7308  -1.7474   0.4543   H         1 1      0.0000
    38 H22      0.9950  -1.8968  -1.0290   H         1 1      0.0000
@<TRIPOS>BOND
     1     1     2   ar
     2     1     6   ar
     3     1    29    1
     4     2     3   ar
     5     2     7    1
     6     3     4   ar
     7     3    30    1
     8     4     5   ar
     9     4     8    1
    10     5     6   ar
    11     5     9    1
    12     6    10    1
    13     8    11    1
    14     8    12    1
    15     8    28    1
    16    11    13    1
    17    11    26    1
    18    11    27    1
    19    13    14    1
    20    14    15    1
    21    14    16    1
    22    14    31    1
    23    16    17    1
    24    16    20    2
    25    17    18    1
    26    17    19    1
    27    17    32    1
    28    20    21    1
    29    20    22    1
    30    22    23    1
    31    22    24    1
    32    22    25    1
    33    32    33    1
    34    32    34    1
    35    32    35    1
    36    13    36    1
    37    36    37    1
    38    13    38    1
@<TRIPOS>SUBSTRUCTURE
     1 1           1 GROUP             0 ****  ****    0  
@<TRIPOS>MOLECULE
Molecule Name_00001_00115
    38    38     1     0     0
SMALL
NO_CHARGES
****
Generated from the CSD

@<TRIPOS>ATOM
     1 C5      -4.3568  -0.4315   1.4204   C.ar      1 1      0.0000
     2 C4      -3.4216   0.5653   1.7208   C.ar      1 1      0.0000
     3 C3      -2.5014   0.9775   0.7509   C.ar      1 1      0.0000
     4 C8      -2.5060   0.3985  -0.5277   C.ar      1 1      0.0000
     5 C7      -3.4418  -0.6060  -0.8178   C.ar      1 1      0.0000
     6 C6      -4.3625  -1.0201   0.1510   C.ar      1 1      0.0000
     7 H4      -3.4045   1.0142   2.7087   H         1 1      0.0000
     8 C9      -1.5537   0.8985  -1.6016   C.3       1 1      0.0000
     9 H7      -3.4425  -1.0766  -1.7985   H         1 1      0.0000
    10 H6      -5.0767  -1.8034  -0.0813   H         1 1      0.0000
    11 C10     -0.5791  -0.2321  -2.0123   C.3       1 1      0.0000
    12 H9A     -2.1115   1.2346  -2.4827   H         1 1      0.0000
    13 C11      0.4584  -0.5485  -0.9722   C.3       1 1      0.0000
    14 C12      1.4324   0.5848  -0.6084   C.3       1 1      0.0000
    15 H12A     0.8625   1.4278  -0.1929   H         1 1      0.0000
    16 C13      2.5807   0.2720   0.3272   C.2       1 1      0.0000
    17 C14      3.5069   1.3955   0.6921   C.3       1 1      0.0000
    18 H14B     4.0045   1.1568   1.6386   H         1 1      0.0000
    19 H14A     2.9549   2.3302   0.8258   H         1 1      0.0000
    20 N        2.7189  -0.9315   0.8000   N.pl3     1 1      0.0000
    21 HN       1.9710  -1.6038   0.4962   H         1 1      0.0000
    22 C        3.8020  -1.4163   1.7055   C.3       1 1      0.0000
    23 H1A      3.5520  -2.4378   1.9953   H         1 1      0.0000
    24 H1C      4.7597  -1.4126   1.1753   H         1 1      0.0000
    25 H1B      3.8646  -0.7876   2.5971   H         1 1      0.0000
    26 H10A    -1.1421  -1.1520  -2.2388   H         1 1      0.0000
    27 H10B    -0.0664   0.0362  -2.9498   H         1 1      0.0000
    28 H9B     -0.9804   1.7576  -1.2364   H         1 1      0.0000
    29 H5      -5.0685  -0.7545   2.1730   H         1 1      0.0000
    30 H3      -1.7674   1.7424   0.9950   H         1 1      0.0000
    31 H12B     1.8654   0.9695  -1.5465   H         1 1      0.0000
    32 C15      4.5973   1.5885  -0.4161   C.3       1 1      0.0000
    33 H15A     5.2056   0.6869  -0.5376   H         1 1      0.0000
    34 H15B     4.1464   1.8430  -1.3800   H         1 1      0.0000
    35 H15C     5.2583   2.4075  -0.1178   H         1 1      0.0000
    36 O2      -0.2070  -0.9559   0.2071   O.3       1 1      0.0000
    37 H21     -0.7552  -1.7616   0.0163   H         1 1      0.0000
    38 H22      1.0462  -1.3915  -1.3324   H         1 1      0.0000
@<TRIPOS>BOND
     1     1     2   ar
     2     1     6   ar
     3     1    29    1
     4     2     3   ar
     5     2     7    1
     6     3     4   ar
     7     3    30    1
     8     4     5   ar
     9     4     8    1
    10     5     6   ar
    11     5     9    1
    12     6    10    1
    13     8    11    1
    14     8    12    1
    15     8    28    1
    16    11    13    1
    17    11    26    1
    18    11    27    1
    19    13    14    1
    20    14    15    1
    21    14    16    1
    22    14    31    1
    23    16    17    1
    24    16    20    2
    25    17    18    1
    26    17    19    1
    27    17    32    1
    28    20    21    1
    29    20    22    1
    30    22    23    1
    31    22    24    1
    32    22    25    1
    33    32    33    1
    34    32    34    1
    35    32    35    1
    36    13    36    1
    37    36    37    1
    38    13    38    1
@<TRIPOS>SUBSTRUCTURE
     1 1           1 GROUP             0 ****  ****    0  
@<TRIPOS>MOLECULE
Molecule Name_00001_00116
    38    38     1     0     0
SMALL
NO_CHARGES
****
Generated from the CSD

@<TRIPOS>ATOM
     1 C5      -5.6729   0.6954   0.1846   C.ar      1 1      0.0000
     2 C4      -5.1067   0.4188  -1.0650   C.ar      1 1      0.0000
     3 C3      -3.7977  -0.0677  -1.1486   C.ar      1 1      0.0000
     4 C8      -3.0415  -0.2823   0.0142   C.ar      1 1      0.0000
     5 C7      -3.6140   0.0054   1.2626   C.ar      1 1      0.0000
     6 C6      -4.9228   0.4926   1.3482   C.ar      1 1      0.0000
     7 H4      -5.6801   0.5884  -1.9707   H         1 1      0.0000
     8 C9      -1.6464  -0.8789  -0.0750   C.3       1 1      0.0000
     9 H7      -3.0314  -0.1376   2.1699   H         1 1      0.0000
    10 H6      -5.3531   0.7195   2.3183   H         1 1      0.0000
    11 C10     -0.6046   0.2437  -0.3017   C.3       1 1      0.0000
    12 H9A     -1.4014  -1.4210   0.8451   H         1 1      0.0000
    13 C11      0.8102  -0.2518  -0.4071   C.3       1 1      0.0000
    14 C12      1.8651   0.5050   0.4174   C.3       1 1      0.0000
    15 H12A     1.6141   0.4210   1.4843   H         1 1      0.0000
    16 C13      3.3213   0.1340   0.2345   C.2       1 1      0.0000
    17 C14      4.0009   0.5832  -1.0262   C.3       1 1      0.0000
    18 H14B     3.3008   0.4893  -1.8638   H         1 1      0.0000
    19 H14A     4.8741  -0.0386  -1.2432   H         1 1      0.0000
    20 N        3.9402  -0.5303   1.1656   N.pl3     1 1      0.0000
    21 HN       3.3533  -0.7370   2.0120   H         1 1      0.0000
    22 C        5.3572  -0.9986   1.1368   C.3       1 1      0.0000
    23 H1A      5.5816  -1.4197   2.1178   H         1 1      0.0000
    24 H1C      5.4777  -1.7729   0.3724   H         1 1      0.0000
    25 H1B      6.0316  -0.1632   0.9338   H         1 1      0.0000
    26 H10A    -0.8494   0.8065  -1.2169   H         1 1      0.0000
    27 H10B    -0.6596   0.9780   0.5178   H         1 1      0.0000
    28 H9B     -1.5891  -1.5995  -0.8982   H         1 1      0.0000
    29 H5      -6.6868   1.0763   0.2503   H         1 1      0.0000
    30 H3      -3.3580  -0.2670  -2.1234   H         1 1      0.0000
    31 H12B     1.7655   1.5783   0.1859   H         1 1      0.0000
    32 C15      4.4448   2.0808  -0.9055   C.3       1 1      0.0000
    33 H15A     3.5857   2.7389  -0.7424   H         1 1      0.0000
    34 H15B     5.1578   2.2213  -0.0876   H         1 1      0.0000
    35 H15C     4.9291   2.3786  -1.8401   H         1 1      0.0000
    36 O2       0.8337  -1.6104  -0.0158   O.3       1 1      0.0000
    37 H21      0.5116  -2.1764  -0.7654   H         1 1      0.0000
    38 H22      1.1049  -0.2007  -1.4542   H         1 1      0.0000
@<TRIPOS>BOND
     1     1     2   ar
     2     1     6   ar
     3     1    29    1
     4     2     3   ar
     5     2     7    1
     6     3     4   ar
     7     3    30    1
     8     4     5   ar
     9     4     8    1
    10     5     6   ar
    11     5     9    1
    12     6    10    1
    13     8    11    1
    14     8    12    1
    15     8    28    1
    16    11    13    1
    17    11    26    1
    18    11    27    1
    19    13    14    1
    20    14    15    1
    21    14    16    1
    22    14    31    1
    23    16    17    1
    24    16    20    2
    25    17    18    1
    26    17    19    1
    27    17    32    1
    28    20    21    1
    29    20    22    1
    30    22    23    1
    31    22    24    1
    32    22    25    1
    33    32    33    1
    34    32    34    1
    35    32    35    1
    36    13    36    1
    37    36    37    1
    38    13    38    1
@<TRIPOS>SUBSTRUCTURE
     1 1           1 GROUP             0 ****  ****    0  
@<TRIPOS>MOLECULE
Molecule Name_00001_00117
    38    38     1     0     0
SMALL
NO_CHARGES
****
Generated from the CSD

@<TRIPOS>ATOM
     1 C5      -5.6644   0.5640   0.2112   C.ar      1 1      0.0000
     2 C4      -5.0464   0.5824  -1.0443   C.ar      1 1      0.0000
     3 C3      -3.7131   0.1793  -1.1746   C.ar      1 1      0.0000
     4 C8      -2.9841  -0.2456  -0.0529   C.ar      1 1      0.0000
     5 C7      -3.6089  -0.2532   1.2034   C.ar      1 1      0.0000
     6 C6      -4.9421   0.1502   1.3359   C.ar      1 1      0.0000
     7 H4      -5.5988   0.9164  -1.9167   H         1 1      0.0000
     8 C9      -1.5593  -0.7514  -0.2084   C.3       1 1      0.0000
     9 H7      -3.0487  -0.5612   2.0835   H         1 1      0.0000
    10 H6      -5.4133   0.1481   2.3135   H         1 1      0.0000
    11 C10     -0.5673   0.4357  -0.1508   C.3       1 1      0.0000
    12 H9A     -1.3170  -1.4658   0.5862   H         1 1      0.0000
    13 C11      0.8727   0.0328  -0.3000   C.3       1 1      0.0000
    14 C12      1.8628   0.6405   0.7079   C.3       1 1      0.0000
    15 H12A     1.5829   0.3219   1.7220   H         1 1      0.0000
    16 C13      3.3405   0.3773   0.5109   C.2       1 1      0.0000
    17 C14      4.0364   1.1115  -0.5980   C.3       1 1      0.0000
    18 H14B     5.1095   1.1549  -0.3811   H         1 1      0.0000
    19 H14A     3.6659   2.1372  -0.6814   H         1 1      0.0000
    20 N        3.9618  -0.4431   1.3059   N.pl3     1 1      0.0000
    21 HN       3.3595  -0.8487   2.0650   H         1 1      0.0000
    22 C        5.4003  -0.8357   1.2374   C.3       1 1      0.0000
    23 H1A      5.6142  -1.4456   2.1161   H         1 1      0.0000
    24 H1C      5.5826  -1.4245   0.3327   H         1 1      0.0000
    25 H1B      6.0389   0.0510   1.2426   H         1 1      0.0000
    26 H10A    -0.8106   1.1693  -0.9363   H         1 1      0.0000
    27 H10B    -0.6839   0.9766   0.8019   H         1 1      0.0000
    28 H9B     -1.4409  -1.2780  -1.1618   H         1 1      0.0000
    29 H5      -6.6974   0.8800   0.3140   H         1 1      0.0000
    30 H3      -3.2338   0.2097  -2.1506   H         1 1      0.0000
    31 H12B     1.7180   1.7334   0.7035   H         1 1      0.0000
    32 C15      3.8273   0.3697  -1.9619   C.3       1 1      0.0000
    33 H15A     3.7551  -0.7130  -1.8195   H         1 1      0.0000
    34 H15B     2.9252   0.7197  -2.4728   H         1 1      0.0000
    35 H15C     4.6884   0.5716  -2.6058   H         1 1      0.0000
    36 O2       0.9506  -1.3757  -0.2028   O.3       1 1      0.0000
    37 H21      0.9803  -1.7692  -1.1140   H         1 1      0.0000
    38 H22      1.1972   0.3171  -1.2999   H         1 1      0.0000
@<TRIPOS>BOND
     1     1     2   ar
     2     1     6   ar
     3     1    29    1
     4     2     3   ar
     5     2     7    1
     6     3     4   ar
     7     3    30    1
     8     4     5   ar
     9     4     8    1
    10     5     6   ar
    11     5     9    1
    12     6    10    1
    13     8    11    1
    14     8    12    1
    15     8    28    1
    16    11    13    1
    17    11    26    1
    18    11    27    1
    19    13    14    1
    20    14    15    1
    21    14    16    1
    22    14    31    1
    23    16    17    1
    24    16    20    2
    25    17    18    1
    26    17    19    1
    27    17    32    1
    28    20    21    1
    29    20    22    1
    30    22    23    1
    31    22    24    1
    32    22    25    1
    33    32    33    1
    34    32    34    1
    35    32    35    1
    36    13    36    1
    37    36    37    1
    38    13    38    1
@<TRIPOS>SUBSTRUCTURE
     1 1           1 GROUP             0 ****  ****    0  
@<TRIPOS>MOLECULE
Molecule Name_00001_00118
    38    38     1     0     0
SMALL
NO_CHARGES
****
Generated from the CSD

@<TRIPOS>ATOM
     1 C5      -5.6910  -0.1434  -0.4599   C.ar      1 1      0.0000
     2 C4      -5.1634  -0.8066   0.6538   C.ar      1 1      0.0000
     3 C3      -3.8353  -0.5876   1.0351   C.ar      1 1      0.0000
     4 C8      -3.0214   0.2952   0.3083   C.ar      1 1      0.0000
     5 C7      -3.5560   0.9498  -0.8118   C.ar      1 1      0.0000
     6 C6      -4.8838   0.7316  -1.1952   C.ar      1 1      0.0000
     7 H4      -5.7819  -1.4971   1.2181   H         1 1      0.0000
     8 C9      -1.6020   0.5866   0.7669   C.3       1 1      0.0000
     9 H7      -2.9296   1.6210  -1.3952   H         1 1      0.0000
    10 H6      -5.2849   1.2368  -2.0679   H         1 1      0.0000
    11 C10     -0.6305  -0.4683   0.1835   C.3       1 1      0.0000
    12 H9A     -1.2911   1.5855   0.4413   H         1 1      0.0000
    13 C11      0.8026  -0.2640   0.5867   C.3       1 1      0.0000
    14 C12      1.8497  -0.3485  -0.5367   C.3       1 1      0.0000
    15 H12A     1.6595   0.4523  -1.2651   H         1 1      0.0000
    16 C13      3.3148  -0.3161  -0.1568   C.2       1 1      0.0000
    17 C14      3.8895   0.9973   0.2877   C.3       1 1      0.0000
    18 H14B     4.7837   0.8109   0.8929   H         1 1      0.0000
    19 H14A     3.1735   1.5499   0.9027   H         1 1      0.0000
    20 N        4.0177  -1.4093  -0.2016   N.pl3     1 1      0.0000
    21 HN       3.4736  -2.2617  -0.4860   H         1 1      0.0000
    22 C        5.4706  -1.5500   0.1104   C.3       1 1      0.0000
    23 H1A      5.7087  -2.6142   0.0823   H         1 1      0.0000
    24 H1C      6.0657  -1.0241  -0.6431   H         1 1      0.0000
    25 H1B      5.6882  -1.1521   1.1046   H         1 1      0.0000
    26 H10A    -0.9420  -1.4794   0.4917   H         1 1      0.0000
    27 H10B    -0.6899  -0.4656  -0.9166   H         1 1      0.0000
    28 H9B     -1.5412   0.5711   1.8606   H         1 1      0.0000
    29 H5      -6.7198  -0.3154  -0.7587   H         1 1      0.0000
    30 H3      -3.4265  -1.1171   1.8929   H         1 1      0.0000
    31 H12B     1.6724  -1.2848  -1.0912   H         1 1      0.0000
    32 C15      4.2918   1.8669  -0.9517   C.3       1 1      0.0000
    33 H15A     5.0501   1.3653  -1.5609   H         1 1      0.0000
    34 H15B     3.4250   2.0911  -1.5806   H         1 1      0.0000
    35 H15C     4.7123   2.8117  -0.5947   H         1 1      0.0000
    36 O2       0.9133   1.0050   1.2003   O.3       1 1      0.0000
    37 H21      0.5697   0.9540   2.1306   H         1 1      0.0000
    38 H22      1.0507  -1.0183   1.3320   H         1 1      0.0000
@<TRIPOS>BOND
     1     1     2   ar
     2     1     6   ar
     3     1    29    1
     4     2     3   ar
     5     2     7    1
     6     3     4   ar
     7     3    30    1
     8     4     5   ar
     9     4     8    1
    10     5     6   ar
    11     5     9    1
    12     6    10    1
    13     8    11    1
    14     8    12    1
    15     8    28    1
    16    11    13    1
    17    11    26    1
    18    11    27    1
    19    13    14    1
    20    14    15    1
    21    14    16    1
    22    14    31    1
    23    16    17    1
    24    16    20    2
    25    17    18    1
    26    17    19    1
    27    17    32    1
    28    20    21    1
    29    20    22    1
    30    22    23    1
    31    22    24    1
    32    22    25    1
    33    32    33    1
    34    32    34    1
    35    32    35    1
    36    13    36    1
    37    36    37    1
    38    13    38    1
@<TRIPOS>SUBSTRUCTURE
     1 1           1 GROUP             0 ****  ****    0  
@<TRIPOS>MOLECULE
Molecule Name_00001_00119
    38    38     1     0     0
SMALL
NO_CHARGES
****
Generated from the CSD

@<TRIPOS>ATOM
     1 C5      -5.6856   0.3750  -0.4316   C.ar      1 1      0.0000
     2 C4      -5.1236  -0.8423  -0.8328   C.ar      1 1      0.0000
     3 C3      -3.8098  -1.1598  -0.4720   C.ar      1 1      0.0000
     4 C8      -3.0445  -0.2652   0.2923   C.ar      1 1      0.0000
     5 C7      -3.6130   0.9566   0.6834   C.ar      1 1      0.0000
     6 C6      -4.9266   1.2762   0.3230   C.ar      1 1      0.0000
     7 H4      -5.7040  -1.5378  -1.4304   H         1 1      0.0000
     8 C9      -1.6435  -0.6433   0.7442   C.3       1 1      0.0000
     9 H7      -3.0236   1.6670   1.2589   H         1 1      0.0000
    10 H6      -5.3539   2.2274   0.6239   H         1 1      0.0000
    11 C10     -0.6072   0.3204   0.1164   C.3       1 1      0.0000
    12 H9A     -1.5670  -0.5971   1.8362   H         1 1      0.0000
    13 C11      0.8107  -0.1694   0.2051   C.3       1 1      0.0000
    14 C12      1.8849   0.7179  -0.4463   C.3       1 1      0.0000
    15 H12A     1.8736   1.7062   0.0349   H         1 1      0.0000
    16 C13      3.3117   0.2132  -0.4766   C.2       1 1      0.0000
    17 C14      4.4118   1.2299  -0.3808   C.3       1 1      0.0000
    18 H14B     4.1309   2.1176  -0.9584   H         1 1      0.0000
    19 H14A     5.3448   0.8375  -0.7951   H         1 1      0.0000
    20 N        3.5432  -1.0638  -0.5593   N.pl3     1 1      0.0000
    21 HN       2.6784  -1.6599  -0.5723   H         1 1      0.0000
    22 C        4.8789  -1.7265  -0.6280   C.3       1 1      0.0000
    23 H1A      4.7119  -2.8033  -0.5753   H         1 1      0.0000
    24 H1C      5.3682  -1.4803  -1.5759   H         1 1      0.0000
    25 H1B      5.5053  -1.4116   0.2101   H         1 1      0.0000
    26 H10A    -0.8518   0.4996  -0.9431   H         1 1      0.0000
    27 H10B    -0.6691   1.3071   0.6027   H         1 1      0.0000
    28 H9B     -1.4092  -1.6718   0.4482   H         1 1      0.0000
    29 H5      -6.7033   0.6238  -0.7141   H         1 1      0.0000
    30 H3      -3.3735  -2.1011  -0.7991   H         1 1      0.0000
    31 H12B     1.5782   0.9060  -1.4884   H         1 1      0.0000
    32 C15      4.6405   1.6507   1.1108   C.3       1 1      0.0000
    33 H15A     3.7396   2.0992   1.5408   H         1 1      0.0000
    34 H15B     4.9376   0.7958   1.7259   H         1 1      0.0000
    35 H15C     5.4413   2.3952   1.1457   H         1 1      0.0000
    36 O2       1.1386  -0.3308   1.5711   O.3       1 1      0.0000
    37 H21      0.6205  -1.0891   1.9485   H         1 1      0.0000
    38 H22      0.8557  -1.1496  -0.2673   H         1 1      0.0000
@<TRIPOS>BOND
     1     1     2   ar
     2     1     6   ar
     3     1    29    1
     4     2     3   ar
     5     2     7    1
     6     3     4   ar
     7     3    30    1
     8     4     5   ar
     9     4     8    1
    10     5     6   ar
    11     5     9    1
    12     6    10    1
    13     8    11    1
    14     8    12    1
    15     8    28    1
    16    11    13    1
    17    11    26    1
    18    11    27    1
    19    13    14    1
    20    14    15    1
    21    14    16    1
    22    14    31    1
    23    16    17    1
    24    16    20    2
    25    17    18    1
    26    17    19    1
    27    17    32    1
    28    20    21    1
    29    20    22    1
    30    22    23    1
    31    22    24    1
    32    22    25    1
    33    32    33    1
    34    32    34    1
    35    32    35    1
    36    13    36    1
    37    36    37    1
    38    13    38    1
@<TRIPOS>SUBSTRUCTURE
     1 1           1 GROUP             0 ****  ****    0  
@<TRIPOS>MOLECULE
Molecule Name_00001_00120
    38    38     1     0     0
SMALL
NO_CHARGES
****
Generated from the CSD

@<TRIPOS>ATOM
     1 C5      -4.7775   0.9227  -0.6398   C.ar      1 1      0.0000
     2 C4      -3.7236   1.8074  -0.3843   C.ar      1 1      0.0000
     3 C3      -2.4272   1.3165  -0.1955   C.ar      1 1      0.0000
     4 C8      -2.1707  -0.0620  -0.2596   C.ar      1 1      0.0000
     5 C7      -3.2345  -0.9426  -0.5081   C.ar      1 1      0.0000
     6 C6      -4.5319  -0.4536  -0.6966   C.ar      1 1      0.0000
     7 H4      -3.9124   2.8744  -0.3251   H         1 1      0.0000
     8 C9      -0.7506  -0.5868  -0.1262   C.3       1 1      0.0000
     9 H7      -3.0523  -2.0145  -0.5403   H         1 1      0.0000
    10 H6      -5.3488  -1.1440  -0.8802   H         1 1      0.0000
    11 C10     -0.4024  -0.7971   1.3676   C.3       1 1      0.0000
    12 H9A     -0.6407  -1.5365  -0.6616   H         1 1      0.0000
    13 C11      0.9804  -1.3378   1.5995   C.3       1 1      0.0000
    14 C12      2.1464  -0.3631   1.3634   C.3       1 1      0.0000
    15 H12A     3.0641  -0.7919   1.7900   H         1 1      0.0000
    16 C13      2.4358   0.0802  -0.0549   C.2       1 1      0.0000
    17 C14      2.0603   1.4826  -0.4360   C.3       1 1      0.0000
    18 H14B     1.1047   1.7385   0.0352   H         1 1      0.0000
    19 H14A     1.9393   1.5749  -1.5191   H         1 1      0.0000
    20 N        3.0122  -0.7404  -0.8829   N.pl3     1 1      0.0000
    21 HN       3.2600  -1.6721  -0.4658   H         1 1      0.0000
    22 C        3.3433  -0.4783  -2.3146   C.3       1 1      0.0000
    23 H1A      3.9190  -1.3308  -2.6776   H         1 1      0.0000
    24 H1C      2.4220  -0.3862  -2.8987   H         1 1      0.0000
    25 H1B      3.9392   0.4328  -2.4083   H         1 1      0.0000
    26 H10A    -0.5054   0.1529   1.9164   H         1 1      0.0000
    27 H10B    -1.1301  -1.4832   1.8297   H         1 1      0.0000
    28 H9B     -0.0380   0.1172  -0.5699   H         1 1      0.0000
    29 H5      -5.7839   1.3021  -0.7827   H         1 1      0.0000
    30 H3      -1.6148   2.0078   0.0173   H         1 1      0.0000
    31 H12B     1.9523   0.5434   1.9602   H         1 1      0.0000
    32 C15      3.1512   2.4944   0.0543   C.3       1 1      0.0000
    33 H15A     3.2591   2.4671   1.1430   H         1 1      0.0000
    34 H15B     4.1234   2.2859  -0.4025   H         1 1      0.0000
    35 H15C     2.8453   3.5049  -0.2322   H         1 1      0.0000
    36 O2       1.0557  -1.8033   2.9326   O.3       1 1      0.0000
    37 H21      0.3818  -2.5193   3.0717   H         1 1      0.0000
    38 H22      1.1201  -2.1922   0.9389   H         1 1      0.0000
@<TRIPOS>BOND
     1     1     2   ar
     2     1     6   ar
     3     1    29    1
     4     2     3   ar
     5     2     7    1
     6     3     4   ar
     7     3    30    1
     8     4     5   ar
     9     4     8    1
    10     5     6   ar
    11     5     9    1
    12     6    10    1
    13     8    11    1
    14     8    12    1
    15     8    28    1
    16    11    13    1
    17    11    26    1
    18    11    27    1
    19    13    14    1
    20    14    15    1
    21    14    16    1
    22    14    31    1
    23    16    17    1
    24    16    20    2
    25    17    18    1
    26    17    19    1
    27    17    32    1
    28    20    21    1
    29    20    22    1
    30    22    23    1
    31    22    24    1
    32    22    25    1
    33    32    33    1
    34    32    34    1
    35    32    35    1
    36    13    36    1
    37    36    37    1
    38    13    38    1
@<TRIPOS>SUBSTRUCTURE
     1 1           1 GROUP             0 ****  ****    0  
@<TRIPOS>MOLECULE
Molecule Name_00001_00121
    38    38     1     0     0
SMALL
NO_CHARGES
****
Generated from the CSD

@<TRIPOS>ATOM
     1 C5      -5.6334   0.1546  -0.2203   C.ar      1 1      0.0000
     2 C4      -4.9935   0.5589   0.9569   C.ar      1 1      0.0000
     3 C3      -3.6329   0.2912   1.1420   C.ar      1 1      0.0000
     4 C8      -2.8983  -0.3827   0.1539   C.ar      1 1      0.0000
     5 C7      -3.5495  -0.7917  -1.0198   C.ar      1 1      0.0000
     6 C6      -4.9104  -0.5255  -1.2064   C.ar      1 1      0.0000
     7 H4      -5.5541   1.0738   1.7304   H         1 1      0.0000
     8 C9      -1.4051  -0.6081   0.3256   C.3       1 1      0.0000
     9 H7      -2.9959  -1.3325  -1.7843   H         1 1      0.0000
    10 H6      -5.4061  -0.8533  -2.1145   H         1 1      0.0000
    11 C10     -0.6672   0.7520   0.3759   C.3       1 1      0.0000
    12 H9A     -1.2046  -1.1640   1.2483   H         1 1      0.0000
    13 C11      0.8211   0.6306   0.5446   C.3       1 1      0.0000
    14 C12      1.6013   0.0499  -0.6469   C.3       1 1      0.0000
    15 H12A     1.4673   0.7072  -1.5177   H         1 1      0.0000
    16 C13      3.0800  -0.2234  -0.4725   C.2       1 1      0.0000
    17 C14      4.0022   0.9586  -0.3990   C.3       1 1      0.0000
    18 H14B     3.4411   1.8670  -0.6448   H         1 1      0.0000
    19 H14A     4.8211   0.8615  -1.1175   H         1 1      0.0000
    20 N        3.5022  -1.4490  -0.3691   N.pl3     1 1      0.0000
    21 HN       2.7403  -2.1720  -0.3911   H         1 1      0.0000
    22 C        4.9186  -1.8961  -0.2215   C.3       1 1      0.0000
    23 H1A      4.9858  -2.9065  -0.6269   H         1 1      0.0000
    24 H1C      5.5794  -1.2321  -0.7882   H         1 1      0.0000
    25 H1B      5.2090  -1.9040   0.8319   H         1 1      0.0000
    26 H10A    -0.8715   1.3263  -0.5421   H         1 1      0.0000
    27 H10B    -1.0654   1.3650   1.2002   H         1 1      0.0000
    28 H9B     -1.0094  -1.2058  -0.5028   H         1 1      0.0000
    29 H5      -6.6894   0.3585  -0.3633   H         1 1      0.0000
    30 H3      -3.1446   0.5949   2.0653   H         1 1      0.0000
    31 H12B     1.1205  -0.9004  -0.9318   H         1 1      0.0000
    32 C15      4.5911   1.1050   1.0453   C.3       1 1      0.0000
    33 H15A     3.7974   1.1298   1.7984   H         1 1      0.0000
    34 H15B     5.2770   0.2860   1.2819   H         1 1      0.0000
    35 H15C     5.1452   2.0465   1.1036   H         1 1      0.0000
    36 O2       1.3403   1.9145   0.8302   O.3       1 1      0.0000
    37 H21      0.9295   2.2593   1.6659   H         1 1      0.0000
    38 H22      1.0086  -0.0053   1.4085   H         1 1      0.0000
@<TRIPOS>BOND
     1     1     2   ar
     2     1     6   ar
     3     1    29    1
     4     2     3   ar
     5     2     7    1
     6     3     4   ar
     7     3    30    1
     8     4     5   ar
     9     4     8    1
    10     5     6   ar
    11     5     9    1
    12     6    10    1
    13     8    11    1
    14     8    12    1
    15     8    28    1
    16    11    13    1
    17    11    26    1
    18    11    27    1
    19    13    14    1
    20    14    15    1
    21    14    16    1
    22    14    31    1
    23    16    17    1
    24    16    20    2
    25    17    18    1
    26    17    19    1
    27    17    32    1
    28    20    21    1
    29    20    22    1
    30    22    23    1
    31    22    24    1
    32    22    25    1
    33    32    33    1
    34    32    34    1
    35    32    35    1
    36    13    36    1
    37    36    37    1
    38    13    38    1
@<TRIPOS>SUBSTRUCTURE
     1 1           1 GROUP             0 ****  ****    0  
@<TRIPOS>MOLECULE
Molecule Name_00001_00122
    38    38     1     0     0
SMALL
NO_CHARGES
****
Generated from the CSD

@<TRIPOS>ATOM
     1 C5      -4.9470   0.1258  -0.5307   C.ar      1 1      0.0000
     2 C4      -4.6983  -0.1834   0.8113   C.ar      1 1      0.0000
     3 C3      -3.4176  -0.0052   1.3454   C.ar      1 1      0.0000
     4 C8      -2.3731   0.4830   0.5449   C.ar      1 1      0.0000
     5 C7      -2.6292   0.7828  -0.8018   C.ar      1 1      0.0000
     6 C6      -3.9092   0.6046  -1.3379   C.ar      1 1      0.0000
     7 H4      -5.4969  -0.5687   1.4370   H         1 1      0.0000
     8 C9      -1.0016   0.7442   1.1455   C.3       1 1      0.0000
     9 H7      -1.8235   1.1428  -1.4377   H         1 1      0.0000
    10 H6      -4.0945   0.8319  -2.3828   H         1 1      0.0000
    11 C10     -0.1530  -0.5502   1.1092   C.3       1 1      0.0000
    12 H9A     -0.4834   1.5335   0.5896   H         1 1      0.0000
    13 C11      0.2511  -0.9739  -0.2748   C.3       1 1      0.0000
    14 C12      1.2838  -0.0862  -0.9897   C.3       1 1      0.0000
    15 H12A     0.8775   0.9306  -1.0852   H         1 1      0.0000
    16 C13      2.6781   0.0049  -0.4073   C.2       1 1      0.0000
    17 C14      3.6223   1.0011  -1.0148   C.3       1 1      0.0000
    18 H14B     3.4789   1.0148  -2.1009   H         1 1      0.0000
    19 H14A     4.6622   0.7279  -0.8139   H         1 1      0.0000
    20 N        3.0081  -0.7498   0.5991   N.pl3     1 1      0.0000
    21 HN       2.2326  -1.3653   0.9503   H         1 1      0.0000
    22 C        4.3386  -0.8079   1.2732   C.3       1 1      0.0000
    23 H1A      4.2353  -1.4576   2.1434   H         1 1      0.0000
    24 H1C      5.0834  -1.2296   0.5907   H         1 1      0.0000
    25 H1B      4.6476   0.1895   1.5954   H         1 1      0.0000
    26 H10A     0.7568  -0.4222   1.7176   H         1 1      0.0000
    27 H10B    -0.7080  -1.3764   1.5816   H         1 1      0.0000
    28 H9B     -1.0954   1.0883   2.1813   H         1 1      0.0000
    29 H5      -5.9390  -0.0156  -0.9469   H         1 1      0.0000
    30 H3      -3.2269  -0.2610   2.3853   H         1 1      0.0000
    31 H12B     1.3811  -0.4517  -2.0253   H         1 1      0.0000
    32 C15      3.3424   2.4357  -0.4510   C.3       1 1      0.0000
    33 H15A     2.3244   2.7633  -0.6833   H         1 1      0.0000
    34 H15B     3.4872   2.4742   0.6328   H         1 1      0.0000
    35 H15C     4.0405   3.1373  -0.9172   H         1 1      0.0000
    36 O2       0.7711  -2.2868  -0.2016   O.3       1 1      0.0000
    37 H21      0.0746  -2.8994   0.1528   H         1 1      0.0000
    38 H22     -0.6467  -1.0041  -0.8905   H         1 1      0.0000
@<TRIPOS>BOND
     1     1     2   ar
     2     1     6   ar
     3     1    29    1
     4     2     3   ar
     5     2     7    1
     6     3     4   ar
     7     3    30    1
     8     4     5   ar
     9     4     8    1
    10     5     6   ar
    11     5     9    1
    12     6    10    1
    13     8    11    1
    14     8    12    1
    15     8    28    1
    16    11    13    1
    17    11    26    1
    18    11    27    1
    19    13    14    1
    20    14    15    1
    21    14    16    1
    22    14    31    1
    23    16    17    1
    24    16    20    2
    25    17    18    1
    26    17    19    1
    27    17    32    1
    28    20    21    1
    29    20    22    1
    30    22    23    1
    31    22    24    1
    32    22    25    1
    33    32    33    1
    34    32    34    1
    35    32    35    1
    36    13    36    1
    37    36    37    1
    38    13    38    1
@<TRIPOS>SUBSTRUCTURE
     1 1           1 GROUP             0 ****  ****    0  
@<TRIPOS>MOLECULE
Molecule Name_00001_00123
    38    38     1     0     0
SMALL
NO_CHARGES
****
Generated from the CSD

@<TRIPOS>ATOM
     1 C5      -4.9819   0.1680  -0.6477   C.ar      1 1      0.0000
     2 C4      -4.7820  -0.5211   0.5539   C.ar      1 1      0.0000
     3 C3      -3.5437  -0.4550   1.2015   C.ar      1 1      0.0000
     4 C8      -2.4933   0.2992   0.6557   C.ar      1 1      0.0000
     5 C7      -2.6997   0.9804  -0.5535   C.ar      1 1      0.0000
     6 C6      -3.9372   0.9150  -1.2031   C.ar      1 1      0.0000
     7 H4      -5.5852  -1.1133   0.9805   H         1 1      0.0000
     8 C9      -1.1731   0.4283   1.3976   C.3       1 1      0.0000
     9 H7      -1.8874   1.5519  -0.9971   H         1 1      0.0000
    10 H6      -4.0837   1.4390  -2.1421   H         1 1      0.0000
    11 C10     -0.2435  -0.7547   1.0327   C.3       1 1      0.0000
    12 H9A     -0.6786   1.3713   1.1395   H         1 1      0.0000
    13 C11      0.2559  -0.7213  -0.3842   C.3       1 1      0.0000
    14 C12      1.2650   0.3868  -0.7297   C.3       1 1      0.0000
    15 H12A     0.8004   1.3655  -0.5437   H         1 1      0.0000
    16 C13      2.6196   0.3605  -0.0545   C.2       1 1      0.0000
    17 C14      3.5282   1.5355  -0.2713   C.3       1 1      0.0000
    18 H14B     4.2496   1.5875   0.5518   H         1 1      0.0000
    19 H14A     2.9619   2.4710  -0.2849   H         1 1      0.0000
    20 N        2.9456  -0.6475   0.6998   N.pl3     1 1      0.0000
    21 HN       2.1940  -1.3748   0.7979   H         1 1      0.0000
    22 C        4.2415  -0.8465   1.4133   C.3       1 1      0.0000
    23 H1A      4.1359  -1.7329   2.0403   H         1 1      0.0000
    24 H1C      5.0449  -1.0079   0.6875   H         1 1      0.0000
    25 H1B      4.4700   0.0196   2.0391   H         1 1      0.0000
    26 H10A     0.6246  -0.7758   1.7113   H         1 1      0.0000
    27 H10B    -0.7681  -1.7093   1.1979   H         1 1      0.0000
    28 H9B     -1.3406   0.4383   2.4802   H         1 1      0.0000
    29 H5      -5.9408   0.1144  -1.1527   H         1 1      0.0000
    30 H3      -3.3898  -1.0045   2.1276   H         1 1      0.0000
    31 H12B     1.4373   0.3565  -1.8182   H         1 1      0.0000
    32 C15      4.3115   1.3810  -1.6192   C.3       1 1      0.0000
    33 H15A     4.9331   0.4803  -1.6176   H         1 1      0.0000
    34 H15B     3.6303   1.3386  -2.4744   H         1 1      0.0000
    35 H15C     4.9678   2.2473  -1.7439   H         1 1      0.0000
    36 O2       0.8537  -1.9699  -0.6724   O.3       1 1      0.0000
    37 H21      0.1805  -2.6918  -0.5652   H         1 1      0.0000
    38 H22     -0.6060  -0.6044  -1.0395   H         1 1      0.0000
@<TRIPOS>BOND
     1     1     2   ar
     2     1     6   ar
     3     1    29    1
     4     2     3   ar
     5     2     7    1
     6     3     4   ar
     7     3    30    1
     8     4     5   ar
     9     4     8    1
    10     5     6   ar
    11     5     9    1
    12     6    10    1
    13     8    11    1
    14     8    12    1
    15     8    28    1
    16    11    13    1
    17    11    26    1
    18    11    27    1
    19    13    14    1
    20    14    15    1
    21    14    16    1
    22    14    31    1
    23    16    17    1
    24    16    20    2
    25    17    18    1
    26    17    19    1
    27    17    32    1
    28    20    21    1
    29    20    22    1
    30    22    23    1
    31    22    24    1
    32    22    25    1
    33    32    33    1
    34    32    34    1
    35    32    35    1
    36    13    36    1
    37    36    37    1
    38    13    38    1
@<TRIPOS>SUBSTRUCTURE
     1 1           1 GROUP             0 ****  ****    0  
@<TRIPOS>MOLECULE
Molecule Name_00001_00124
    38    38     1     0     0
SMALL
NO_CHARGES
****
Generated from the CSD

@<TRIPOS>ATOM
     1 C5      -5.6450   0.7577  -0.0639   C.ar      1 1      0.0000
     2 C4      -4.6357   1.3151   0.7292   C.ar      1 1      0.0000
     3 C3      -3.3667   0.7271   0.7633   C.ar      1 1      0.0000
     4 C8      -3.0933  -0.4228   0.0063   C.ar      1 1      0.0000
     5 C7      -4.1134  -0.9799  -0.7798   C.ar      1 1      0.0000
     6 C6      -5.3834  -0.3937  -0.8147   C.ar      1 1      0.0000
     7 H4      -4.8387   2.1996   1.3243   H         1 1      0.0000
     8 C9      -1.6946  -1.0172  -0.0114   C.3       1 1      0.0000
     9 H7      -3.9200  -1.8824  -1.3554   H         1 1      0.0000
    10 H6      -6.1675  -0.8373  -1.4199   H         1 1      0.0000
    11 C10     -0.6390   0.1119   0.0750   C.3       1 1      0.0000
    12 H9A     -1.5595  -1.7054   0.8303   H         1 1      0.0000
    13 C11      0.7809  -0.3776   0.0228   C.3       1 1      0.0000
    14 C12      1.8789   0.6989   0.0522   C.3       1 1      0.0000
    15 H12A     1.8085   1.2571   0.9965   H         1 1      0.0000
    16 C13      3.3157   0.2648  -0.1447   C.2       1 1      0.0000
    17 C14      4.2584   1.2457  -0.7789   C.3       1 1      0.0000
    18 H14B     3.7332   1.7839  -1.5758   H         1 1      0.0000
    19 H14A     5.1156   0.7329  -1.2245   H         1 1      0.0000
    20 N        3.6945  -0.9137   0.2539   N.pl3     1 1      0.0000
    21 HN       2.9399  -1.4749   0.7220   H         1 1      0.0000
    22 C        5.0563  -1.5087   0.1138   C.3       1 1      0.0000
    23 H1A      5.0549  -2.4570   0.6529   H         1 1      0.0000
    24 H1C      5.2756  -1.6914  -0.9431   H         1 1      0.0000
    25 H1B      5.8097  -0.8441   0.5435   H         1 1      0.0000
    26 H10A    -0.7920   0.8350  -0.7424   H         1 1      0.0000
    27 H10B    -0.7787   0.6863   1.0047   H         1 1      0.0000
    28 H9B     -1.5347  -1.5948  -0.9285   H         1 1      0.0000
    29 H5      -6.6306   1.2107  -0.0882   H         1 1      0.0000
    30 H3      -2.5905   1.1565   1.3930   H         1 1      0.0000
    31 H12B     1.6460   1.4376  -0.7324   H         1 1      0.0000
    32 C15      4.7648   2.2825   0.2808   C.3       1 1      0.0000
    33 H15A     3.9345   2.8532   0.7079   H         1 1      0.0000
    34 H15B     5.3097   1.7906   1.0921   H         1 1      0.0000
    35 H15C     5.4424   2.9852  -0.2131   H         1 1      0.0000
    36 O2       0.9882  -1.2513   1.1151   O.3       1 1      0.0000
    37 H21      0.4504  -2.0760   0.9860   H         1 1      0.0000
    38 H22      0.9022  -0.9536  -0.8934   H         1 1      0.0000
@<TRIPOS>BOND
     1     1     2   ar
     2     1     6   ar
     3     1    29    1
     4     2     3   ar
     5     2     7    1
     6     3     4   ar
     7     3    30    1
     8     4     5   ar
     9     4     8    1
    10     5     6   ar
    11     5     9    1
    12     6    10    1
    13     8    11    1
    14     8    12    1
    15     8    28    1
    16    11    13    1
    17    11    26    1
    18    11    27    1
    19    13    14    1
    20    14    15    1
    21    14    16    1
    22    14    31    1
    23    16    17    1
    24    16    20    2
    25    17    18    1
    26    17    19    1
    27    17    32    1
    28    20    21    1
    29    20    22    1
    30    22    23    1
    31    22    24    1
    32    22    25    1
    33    32    33    1
    34    32    34    1
    35    32    35    1
    36    13    36    1
    37    36    37    1
    38    13    38    1
@<TRIPOS>SUBSTRUCTURE
     1 1           1 GROUP             0 ****  ****    0  
@<TRIPOS>MOLECULE
Molecule Name_00001_00125
    38    38     1     0     0
SMALL
NO_CHARGES
****
Generated from the CSD

@<TRIPOS>ATOM
     1 C5      -5.6144   0.7655   0.0147   C.ar      1 1      0.0000
     2 C4      -4.6635   1.0530   1.0005   C.ar      1 1      0.0000
     3 C3      -3.3871   0.4847   0.9294   C.ar      1 1      0.0000
     4 C8      -3.0479  -0.3760  -0.1261   C.ar      1 1      0.0000
     5 C7      -4.0099  -0.6654  -1.1059   C.ar      1 1      0.0000
     6 C6      -5.2872  -0.0986  -1.0361   C.ar      1 1      0.0000
     7 H4      -4.9179   1.7112   1.8250   H         1 1      0.0000
     8 C9      -1.6390  -0.9343  -0.2406   C.3       1 1      0.0000
     9 H7      -3.7659  -1.3467  -1.9179   H         1 1      0.0000
    10 H6      -6.0263  -0.3354  -1.7947   H         1 1      0.0000
    11 C10     -0.6127   0.1148   0.2524   C.3       1 1      0.0000
    12 H9A     -1.5388  -1.8481   0.3557   H         1 1      0.0000
    13 C11      0.8173  -0.3331   0.1388   C.3       1 1      0.0000
    14 C12      1.8901   0.6835   0.5641   C.3       1 1      0.0000
    15 H12A     1.7546   0.9239   1.6280   H         1 1      0.0000
    16 C13      3.3443   0.3329   0.3310   C.2       1 1      0.0000
    17 C14      4.3021   1.4626   0.0872   C.3       1 1      0.0000
    18 H14B     5.3163   1.1333   0.3390   H         1 1      0.0000
    19 H14A     4.0597   2.3239   0.7162   H         1 1      0.0000
    20 N        3.7229  -0.9106   0.3706   N.pl3     1 1      0.0000
    21 HN       2.9540  -1.5896   0.5970   H         1 1      0.0000
    22 C        5.1020  -1.4319   0.1375   C.3       1 1      0.0000
    23 H1A      5.0887  -2.5001   0.3582   H         1 1      0.0000
    24 H1C      5.3853  -1.2801  -0.9090   H         1 1      0.0000
    25 H1B      5.8162  -0.9308   0.7956   H         1 1      0.0000
    26 H10A    -0.7329   1.0541  -0.3111   H         1 1      0.0000
    27 H10B    -0.8170   0.3749   1.3033   H         1 1      0.0000
    28 H9B     -1.4151  -1.2015  -1.2792   H         1 1      0.0000
    29 H5      -6.6058   1.2028   0.0709   H         1 1      0.0000
    30 H3      -2.6571   0.7004   1.7064   H         1 1      0.0000
    31 H12B     1.6880   1.6275   0.0316   H         1 1      0.0000
    32 C15      4.2708   1.8921  -1.4190   C.3       1 1      0.0000
    33 H15A     4.5626   1.0661  -2.0749   H         1 1      0.0000
    34 H15B     3.2772   2.2431  -1.7136   H         1 1      0.0000
    35 H15C     4.9825   2.7101  -1.5646   H         1 1      0.0000
    36 O2       0.9789  -1.5003   0.9204   O.3       1 1      0.0000
    37 H21      0.4659  -2.2460   0.5119   H         1 1      0.0000
    38 H22      1.0024  -0.5990  -0.9009   H         1 1      0.0000
@<TRIPOS>BOND
     1     1     2   ar
     2     1     6   ar
     3     1    29    1
     4     2     3   ar
     5     2     7    1
     6     3     4   ar
     7     3    30    1
     8     4     5   ar
     9     4     8    1
    10     5     6   ar
    11     5     9    1
    12     6    10    1
    13     8    11    1
    14     8    12    1
    15     8    28    1
    16    11    13    1
    17    11    26    1
    18    11    27    1
    19    13    14    1
    20    14    15    1
    21    14    16    1
    22    14    31    1
    23    16    17    1
    24    16    20    2
    25    17    18    1
    26    17    19    1
    27    17    32    1
    28    20    21    1
    29    20    22    1
    30    22    23    1
    31    22    24    1
    32    22    25    1
    33    32    33    1
    34    32    34    1
    35    32    35    1
    36    13    36    1
    37    36    37    1
    38    13    38    1
@<TRIPOS>SUBSTRUCTURE
     1 1           1 GROUP             0 ****  ****    0  
@<TRIPOS>MOLECULE
Molecule Name_00001_00126
    38    38     1     0     0
SMALL
NO_CHARGES
****
Generated from the CSD

@<TRIPOS>ATOM
     1 C5      -4.9656   0.7835  -0.0026   C.ar      1 1      0.0000
     2 C4      -4.2689   0.3875  -1.1499   C.ar      1 1      0.0000
     3 C3      -3.0886  -0.3542  -1.0315   C.ar      1 1      0.0000
     4 C8      -2.5925  -0.7073   0.2331   C.ar      1 1      0.0000
     5 C7      -3.2929  -0.2992   1.3785   C.ar      1 1      0.0000
     6 C6      -4.4732   0.4432   1.2621   C.ar      1 1      0.0000
     7 H4      -4.6397   0.6618  -2.1323   H         1 1      0.0000
     8 C9      -1.3504  -1.5743   0.3572   C.3       1 1      0.0000
     9 H7      -2.9082  -0.5494   2.3647   H         1 1      0.0000
    10 H6      -5.0027   0.7606   2.1546   H         1 1      0.0000
    11 C10     -0.1649  -0.9091  -0.3838   C.3       1 1      0.0000
    12 H9A     -1.0857  -1.7169   1.4108   H         1 1      0.0000
    13 C11      0.3783   0.3093   0.3083   C.3       1 1      0.0000
    14 C12      1.6228   0.9578  -0.3211   C.3       1 1      0.0000
    15 H12A     1.7668   1.9560   0.1160   H         1 1      0.0000
    16 C13      2.9360   0.2078  -0.2522   C.2       1 1      0.0000
    17 C14      4.1388   0.8517  -0.8779   C.3       1 1      0.0000
    18 H14B     3.8374   1.3469  -1.8076   H         1 1      0.0000
    19 H14A     4.8995   0.1050  -1.1231   H         1 1      0.0000
    20 N        2.9925  -0.9405   0.3555   N.pl3     1 1      0.0000
    21 HN       2.0848  -1.2466   0.7865   H         1 1      0.0000
    22 C        4.1905  -1.8205   0.4921   C.3       1 1      0.0000
    23 H1A      3.9164  -2.6446   1.1522   H         1 1      0.0000
    24 H1C      4.4737  -2.2182  -0.4878   H         1 1      0.0000
    25 H1B      5.0251  -1.2651   0.9267   H         1 1      0.0000
    26 H10A     0.6543  -1.6347  -0.5132   H         1 1      0.0000
    27 H10B    -0.4705  -0.6267  -1.4039   H         1 1      0.0000
    28 H9B     -1.5321  -2.5681  -0.0665   H         1 1      0.0000
    29 H5      -5.8791   1.3619  -0.0932   H         1 1      0.0000
    30 H3      -2.5437  -0.6466  -1.9265   H         1 1      0.0000
    31 H12B     1.4030   1.1428  -1.3855   H         1 1      0.0000
    32 C15      4.7519   1.9221   0.0878   C.3       1 1      0.0000
    33 H15A     4.0323   2.7160   0.3107   H         1 1      0.0000
    34 H15B     5.0812   1.4697   1.0281   H         1 1      0.0000
    35 H15C     5.6200   2.3763  -0.3989   H         1 1      0.0000
    36 O2      -0.6473   1.2812   0.3634   O.3       1 1      0.0000
    37 H21     -1.1208   1.2137   1.2336   H         1 1      0.0000
    38 H22      0.6284   0.0292   1.3305   H         1 1      0.0000
@<TRIPOS>BOND
     1     1     2   ar
     2     1     6   ar
     3     1    29    1
     4     2     3   ar
     5     2     7    1
     6     3     4   ar
     7     3    30    1
     8     4     5   ar
     9     4     8    1
    10     5     6   ar
    11     5     9    1
    12     6    10    1
    13     8    11    1
    14     8    12    1
    15     8    28    1
    16    11    13    1
    17    11    26    1
    18    11    27    1
    19    13    14    1
    20    14    15    1
    21    14    16    1
    22    14    31    1
    23    16    17    1
    24    16    20    2
    25    17    18    1
    26    17    19    1
    27    17    32    1
    28    20    21    1
    29    20    22    1
    30    22    23    1
    31    22    24    1
    32    22    25    1
    33    32    33    1
    34    32    34    1
    35    32    35    1
    36    13    36    1
    37    36    37    1
    38    13    38    1
@<TRIPOS>SUBSTRUCTURE
     1 1           1 GROUP             0 ****  ****    0  
@<TRIPOS>MOLECULE
Molecule Name_00001_00127
    38    38     1     0     0
SMALL
NO_CHARGES
****
Generated from the CSD

@<TRIPOS>ATOM
     1 C5      -4.9450   0.7799   0.1213   C.ar      1 1      0.0000
     2 C4      -4.1730   0.7775  -1.0460   C.ar      1 1      0.0000
     3 C3      -2.9854   0.0400  -1.0988   C.ar      1 1      0.0000
     4 C8      -2.5570  -0.7018   0.0130   C.ar      1 1      0.0000
     5 C7      -3.3328  -0.6874   1.1822   C.ar      1 1      0.0000
     6 C6      -4.5206   0.0502   1.2372   C.ar      1 1      0.0000
     7 H4      -4.4912   1.3538  -1.9088   H         1 1      0.0000
     8 C9      -1.3052  -1.5596  -0.0709   C.3       1 1      0.0000
     9 H7      -3.0014  -1.2420   2.0573   H         1 1      0.0000
    10 H6      -5.1089   0.0609   2.1490   H         1 1      0.0000
    11 C10     -0.0933  -0.6880  -0.4814   C.3       1 1      0.0000
    12 H9A     -1.1001  -2.0345   0.8949   H         1 1      0.0000
    13 C11      0.3806   0.2424   0.5994   C.3       1 1      0.0000
    14 C12      1.6452   1.0623   0.2926   C.3       1 1      0.0000
    15 H12A     1.7406   1.8659   1.0364   H         1 1      0.0000
    16 C13      2.9685   0.3331   0.1988   C.2       1 1      0.0000
    17 C14      4.1914   1.1473  -0.1086   C.3       1 1      0.0000
    18 H14B     5.0781   0.6105   0.2464   H         1 1      0.0000
    19 H14A     4.1554   2.1151   0.3997   H         1 1      0.0000
    20 N        3.0149  -0.9499   0.4061   N.pl3     1 1      0.0000
    21 HN       2.0903  -1.3808   0.6572   H         1 1      0.0000
    22 C        4.2221  -1.8241   0.3269   C.3       1 1      0.0000
    23 H1A      3.9281  -2.8179   0.6674   H         1 1      0.0000
    24 H1C      4.5716  -1.8831  -0.7088   H         1 1      0.0000
    25 H1B      5.0169  -1.4371   0.9693   H         1 1      0.0000
    26 H10A     0.7482  -1.3311  -0.7858   H         1 1      0.0000
    27 H10B    -0.3444  -0.0918  -1.3731   H         1 1      0.0000
    28 H9B     -1.4392  -2.3636  -0.8030   H         1 1      0.0000
    29 H5      -5.8643   1.3546   0.1646   H         1 1      0.0000
    30 H3      -2.3822   0.0538  -2.0040   H         1 1      0.0000
    31 H12B     1.4845   1.5809  -0.6669   H         1 1      0.0000
    32 C15      4.3243   1.3747  -1.6529   C.3       1 1      0.0000
    33 H15A     4.4181   0.4250  -2.1887   H         1 1      0.0000
    34 H15B     3.4646   1.9217  -2.0515   H         1 1      0.0000
    35 H15C     5.2263   1.9637  -1.8437   H         1 1      0.0000
    36 O2      -0.6681   1.1421   0.9001   O.3       1 1      0.0000
    37 H21     -1.1905   0.7959   1.6703   H         1 1      0.0000
    38 H22      0.5761  -0.3525   1.4903   H         1 1      0.0000
@<TRIPOS>BOND
     1     1     2   ar
     2     1     6   ar
     3     1    29    1
     4     2     3   ar
     5     2     7    1
     6     3     4   ar
     7     3    30    1
     8     4     5   ar
     9     4     8    1
    10     5     6   ar
    11     5     9    1
    12     6    10    1
    13     8    11    1
    14     8    12    1
    15     8    28    1
    16    11    13    1
    17    11    26    1
    18    11    27    1
    19    13    14    1
    20    14    15    1
    21    14    16    1
    22    14    31    1
    23    16    17    1
    24    16    20    2
    25    17    18    1
    26    17    19    1
    27    17    32    1
    28    20    21    1
    29    20    22    1
    30    22    23    1
    31    22    24    1
    32    22    25    1
    33    32    33    1
    34    32    34    1
    35    32    35    1
    36    13    36    1
    37    36    37    1
    38    13    38    1
@<TRIPOS>SUBSTRUCTURE
     1 1           1 GROUP             0 ****  ****    0  
@<TRIPOS>MOLECULE
Molecule Name_00001_00128
    38    38     1     0     0
SMALL
NO_CHARGES
****
Generated from the CSD

@<TRIPOS>ATOM
     1 C5      -4.7475  -0.0750   0.9127   C.ar      1 1      0.0000
     2 C4      -3.8805   0.4937   1.8526   C.ar      1 1      0.0000
     3 C3      -2.5238   0.6503   1.5492   C.ar      1 1      0.0000
     4 C8      -2.0198   0.2405   0.3050   C.ar      1 1      0.0000
     5 C7      -2.8944  -0.3362  -0.6285   C.ar      1 1      0.0000
     6 C6      -4.2515  -0.4943  -0.3266   C.ar      1 1      0.0000
     7 H4      -4.2585   0.8070   2.8205   H         1 1      0.0000
     8 C9      -0.5610   0.4779  -0.0496   C.3       1 1      0.0000
     9 H7      -2.5123  -0.6762  -1.5885   H         1 1      0.0000
    10 H6      -4.9177  -0.9489  -1.0527   H         1 1      0.0000
    11 C10     -0.2658  -0.0686  -1.4677   C.3       1 1      0.0000
    12 H9A     -0.3275   1.5479  -0.0172   H         1 1      0.0000
    13 C11      1.1519   0.1442  -1.9185   C.3       1 1      0.0000
    14 C12      2.2294  -0.6966  -1.2131   C.3       1 1      0.0000
    15 H12A     3.1612  -0.6454  -1.7937   H         1 1      0.0000
    16 C13      2.5465  -0.3889   0.2348   C.2       1 1      0.0000
    17 C14      3.2971   0.8772   0.5290   C.3       1 1      0.0000
    18 H14B     4.0525   1.0351  -0.2489   H         1 1      0.0000
    19 H14A     3.8112   0.8128   1.4922   H         1 1      0.0000
    20 N        2.1481  -1.2005   1.1696   N.pl3     1 1      0.0000
    21 HN       1.5937  -2.0220   0.8214   H         1 1      0.0000
    22 C        2.3966  -1.0652   2.6352   C.3       1 1      0.0000
    23 H1A      1.8299  -1.8513   3.1361   H         1 1      0.0000
    24 H1C      3.4630  -1.1952   2.8454   H         1 1      0.0000
    25 H1B      2.0607  -0.0882   2.9911   H         1 1      0.0000
    26 H10A    -0.4907  -1.1465  -1.5112   H         1 1      0.0000
    27 H10B    -0.9416   0.4018  -2.1997   H         1 1      0.0000
    28 H9B      0.0954  -0.0170   0.6745   H         1 1      0.0000
    29 H5      -5.7992  -0.2003   1.1484   H         1 1      0.0000
    30 H3      -1.8521   1.0796   2.2894   H         1 1      0.0000
    31 H12B     1.9191  -1.7532  -1.2664   H         1 1      0.0000
    32 C15      2.3213   2.1027   0.5403   C.3       1 1      0.0000
    33 H15A     2.1440   2.4800  -0.4715   H         1 1      0.0000
    34 H15B     1.3600   1.8435   0.9942   H         1 1      0.0000
    35 H15C     2.7748   2.9059   1.1285   H         1 1      0.0000
    36 O2       1.2201  -0.1226  -3.3055   O.3       1 1      0.0000
    37 H21      0.6116   0.4936  -3.7914   H         1 1      0.0000
    38 H22      1.3962   1.1947  -1.7680   H         1 1      0.0000
@<TRIPOS>BOND
     1     1     2   ar
     2     1     6   ar
     3     1    29    1
     4     2     3   ar
     5     2     7    1
     6     3     4   ar
     7     3    30    1
     8     4     5   ar
     9     4     8    1
    10     5     6   ar
    11     5     9    1
    12     6    10    1
    13     8    11    1
    14     8    12    1
    15     8    28    1
    16    11    13    1
    17    11    26    1
    18    11    27    1
    19    13    14    1
    20    14    15    1
    21    14    16    1
    22    14    31    1
    23    16    17    1
    24    16    20    2
    25    17    18    1
    26    17    19    1
    27    17    32    1
    28    20    21    1
    29    20    22    1
    30    22    23    1
    31    22    24    1
    32    22    25    1
    33    32    33    1
    34    32    34    1
    35    32    35    1
    36    13    36    1
    37    36    37    1
    38    13    38    1
@<TRIPOS>SUBSTRUCTURE
     1 1           1 GROUP             0 ****  ****    0  
@<TRIPOS>MOLECULE
Molecule Name_00001_00129
    38    38     1     0     0
SMALL
NO_CHARGES
****
Generated from the CSD

@<TRIPOS>ATOM
     1 C5      -4.8938  -0.3290   0.8877   C.ar      1 1      0.0000
     2 C4      -4.0768   0.2934   1.8383   C.ar      1 1      0.0000
     3 C3      -2.7329   0.5500   1.5464   C.ar      1 1      0.0000
     4 C8      -2.1918   0.1875   0.3030   C.ar      1 1      0.0000
     5 C7      -3.0159  -0.4434  -0.6413   C.ar      1 1      0.0000
     6 C6      -4.3601  -0.7015  -0.3509   C.ar      1 1      0.0000
     7 H4      -4.4832   0.5708   2.8056   H         1 1      0.0000
     8 C9      -0.7516   0.5324  -0.0388   C.3       1 1      0.0000
     9 H7      -2.6035  -0.7473  -1.6008   H         1 1      0.0000
    10 H6      -4.9866  -1.1973  -1.0853   H         1 1      0.0000
    11 C10     -0.4077   0.0200  -1.4587   C.3       1 1      0.0000
    12 H9A     -0.5963   1.6162   0.0034   H         1 1      0.0000
    13 C11      0.9936   0.3392  -1.8976   C.3       1 1      0.0000
    14 C12      2.1250  -0.4245  -1.1890   C.3       1 1      0.0000
    15 H12A     3.0564  -0.2947  -1.7580   H         1 1      0.0000
    16 C13      2.4016  -0.1110   0.2660   C.2       1 1      0.0000
    17 C14      3.0375   1.2108   0.5843   C.3       1 1      0.0000
    18 H14B     2.8109   1.4769   1.6227   H         1 1      0.0000
    19 H14A     2.6433   2.0006  -0.0615   H         1 1      0.0000
    20 N        2.0665  -0.9669   1.1859   N.pl3     1 1      0.0000
    21 HN       1.5881  -1.8282   0.8213   H         1 1      0.0000
    22 C        2.2894  -0.8313   2.6556   C.3       1 1      0.0000
    23 H1A      1.7883  -1.6703   3.1403   H         1 1      0.0000
    24 H1C      3.3612  -0.8718   2.8747   H         1 1      0.0000
    25 H1B      1.8673   0.1081   3.0209   H         1 1      0.0000
    26 H10A    -0.5530  -1.0711  -1.5116   H         1 1      0.0000
    27 H10B    -1.1112   0.4455  -2.1920   H         1 1      0.0000
    28 H9B     -0.0662   0.0805   0.6866   H         1 1      0.0000
    29 H5      -5.9353  -0.5319   1.1145   H         1 1      0.0000
    30 H3      -2.0991   1.0208   2.2948   H         1 1      0.0000
    31 H12B     1.8978  -1.5011  -1.2580   H         1 1      0.0000
    32 C15      4.5925   1.1261   0.4135   C.3       1 1      0.0000
    33 H15A     5.0271   0.3811   1.0871   H         1 1      0.0000
    34 H15B     4.8682   0.8755  -0.6154   H         1 1      0.0000
    35 H15C     5.0252   2.1004   0.6587   H         1 1      0.0000
    36 O2       1.0910   0.0870  -3.2855   O.3       1 1      0.0000
    37 H21      0.4423   0.6599  -3.7724   H         1 1      0.0000
    38 H22      1.1590   1.4039  -1.7392   H         1 1      0.0000
@<TRIPOS>BOND
     1     1     2   ar
     2     1     6   ar
     3     1    29    1
     4     2     3   ar
     5     2     7    1
     6     3     4   ar
     7     3    30    1
     8     4     5   ar
     9     4     8    1
    10     5     6   ar
    11     5     9    1
    12     6    10    1
    13     8    11    1
    14     8    12    1
    15     8    28    1
    16    11    13    1
    17    11    26    1
    18    11    27    1
    19    13    14    1
    20    14    15    1
    21    14    16    1
    22    14    31    1
    23    16    17    1
    24    16    20    2
    25    17    18    1
    26    17    19    1
    27    17    32    1
    28    20    21    1
    29    20    22    1
    30    22    23    1
    31    22    24    1
    32    22    25    1
    33    32    33    1
    34    32    34    1
    35    32    35    1
    36    13    36    1
    37    36    37    1
    38    13    38    1
@<TRIPOS>SUBSTRUCTURE
     1 1           1 GROUP             0 ****  ****    0  
@<TRIPOS>MOLECULE
Molecule Name_00001_00130
    38    38     1     0     0
SMALL
NO_CHARGES
****
Generated from the CSD

@<TRIPOS>ATOM
     1 C5      -5.6656   0.5036   0.5072   C.ar      1 1      0.0000
     2 C4      -4.6281   1.3265   0.9601   C.ar      1 1      0.0000
     3 C3      -3.3186   1.1098   0.5180   C.ar      1 1      0.0000
     4 C8      -3.0323   0.0697  -0.3799   C.ar      1 1      0.0000
     5 C7      -4.0771  -0.7557  -0.8227   C.ar      1 1      0.0000
     6 C6      -5.3874  -0.5410  -0.3812   C.ar      1 1      0.0000
     7 H4      -4.8373   2.1287   1.6604   H         1 1      0.0000
     8 C9      -1.6220  -0.1182  -0.9146   C.3       1 1      0.0000
     9 H7      -3.8651  -1.5775  -1.5029   H         1 1      0.0000
    10 H6      -6.1868  -1.1902  -0.7236   H         1 1      0.0000
    11 C10     -0.6305  -0.2985   0.2606   C.3       1 1      0.0000
    12 H9A     -1.5734  -0.9960  -1.5684   H         1 1      0.0000
    13 C11      0.7958  -0.4919  -0.1712   C.3       1 1      0.0000
    14 C12      1.8785   0.0627   0.7698   C.3       1 1      0.0000
    15 H12A     1.8048  -0.4469   1.7409   H         1 1      0.0000
    16 C13      3.3204   0.0184   0.3108   C.2       1 1      0.0000
    17 C14      3.7466   1.0014  -0.7404   C.3       1 1      0.0000
    18 H14B     2.9402   1.1146  -1.4734   H         1 1      0.0000
    19 H14A     4.6371   0.6486  -1.2683   H         1 1      0.0000
    20 N        4.1420  -0.8365   0.8449   N.pl3     1 1      0.0000
    21 HN       3.7174  -1.4300   1.6006   H         1 1      0.0000
    22 C        5.5793  -1.0329   0.4936   C.3       1 1      0.0000
    23 H1A      5.9952  -1.7453   1.2074   H         1 1      0.0000
    24 H1C      5.6625  -1.4416  -0.5186   H         1 1      0.0000
    25 H1B      6.1220  -0.0870   0.5617   H         1 1      0.0000
    26 H10A    -0.6794   0.5733   0.9329   H         1 1      0.0000
    27 H10B    -0.9311  -1.1611   0.8766   H         1 1      0.0000
    28 H9B     -1.3206   0.7474  -1.5148   H         1 1      0.0000
    29 H5      -6.6810   0.6685   0.8522   H         1 1      0.0000
    30 H3      -2.5141   1.7435   0.8849   H         1 1      0.0000
    31 H12B     1.6312   1.1159   0.9823   H         1 1      0.0000
    32 C15      4.0422   2.3986  -0.0963   C.3       1 1      0.0000
    33 H15A     3.1535   2.8068   0.3948   H         1 1      0.0000
    34 H15B     4.8535   2.3375   0.6353   H         1 1      0.0000
    35 H15C     4.3428   3.0920  -0.8873   H         1 1      0.0000
    36 O2       1.0233  -1.8773  -0.3398   O.3       1 1      0.0000
    37 H21      0.4063  -2.2322  -1.0321   H         1 1      0.0000
    38 H22      0.9190  -0.0127  -1.1414   H         1 1      0.0000
@<TRIPOS>BOND
     1     1     2   ar
     2     1     6   ar
     3     1    29    1
     4     2     3   ar
     5     2     7    1
     6     3     4   ar
     7     3    30    1
     8     4     5   ar
     9     4     8    1
    10     5     6   ar
    11     5     9    1
    12     6    10    1
    13     8    11    1
    14     8    12    1
    15     8    28    1
    16    11    13    1
    17    11    26    1
    18    11    27    1
    19    13    14    1
    20    14    15    1
    21    14    16    1
    22    14    31    1
    23    16    17    1
    24    16    20    2
    25    17    18    1
    26    17    19    1
    27    17    32    1
    28    20    21    1
    29    20    22    1
    30    22    23    1
    31    22    24    1
    32    22    25    1
    33    32    33    1
    34    32    34    1
    35    32    35    1
    36    13    36    1
    37    36    37    1
    38    13    38    1
@<TRIPOS>SUBSTRUCTURE
     1 1           1 GROUP             0 ****  ****    0  
@<TRIPOS>MOLECULE
Molecule Name_00001_00131
    38    38     1     0     0
SMALL
NO_CHARGES
****
Generated from the CSD

@<TRIPOS>ATOM
     1 C5      -5.6676   0.2533   0.4709   C.ar      1 1      0.0000
     2 C4      -4.6903   0.8475   1.2774   C.ar      1 1      0.0000
     3 C3      -3.3514   0.8455   0.8718   C.ar      1 1      0.0000
     4 C8      -2.9754   0.2501  -0.3424   C.ar      1 1      0.0000
     5 C7      -3.9604  -0.3506  -1.1410   C.ar      1 1      0.0000
     6 C6      -5.2999  -0.3502  -0.7368   C.ar      1 1      0.0000
     7 H4      -4.9693   1.3038   2.2217   H         1 1      0.0000
     8 C9      -1.5323   0.3129  -0.8151   C.3       1 1      0.0000
     9 H7      -3.6790  -0.8328  -2.0745   H         1 1      0.0000
    10 H6      -6.0526  -0.8246  -1.3582   H         1 1      0.0000
    11 C10     -0.5977  -0.3006   0.2560   C.3       1 1      0.0000
    12 H9A     -1.4129  -0.2341  -1.7569   H         1 1      0.0000
    13 C11      0.8562  -0.2833  -0.1235   C.3       1 1      0.0000
    14 C12      1.8637  -0.1276   1.0280   C.3       1 1      0.0000
    15 H12A     1.7598  -0.9808   1.7132   H         1 1      0.0000
    16 C13      3.3285   0.0377   0.6833   C.2       1 1      0.0000
    17 C14      3.7689   1.3633   0.1340   C.3       1 1      0.0000
    18 H14B     4.8428   1.4867   0.3132   H         1 1      0.0000
    19 H14A     3.2460   2.1859   0.6300   H         1 1      0.0000
    20 N        4.1552  -0.9448   0.8898   N.pl3     1 1      0.0000
    21 HN       3.7160  -1.7957   1.3216   H         1 1      0.0000
    22 C        5.6160  -0.9619   0.5837   C.3       1 1      0.0000
    23 H1A      6.0225  -1.8913   0.9848   H         1 1      0.0000
    24 H1C      5.7694  -0.9356  -0.5000   H         1 1      0.0000
    25 H1B      6.1149  -0.1109   1.0537   H         1 1      0.0000
    26 H10A    -0.7180   0.2335   1.2124   H         1 1      0.0000
    27 H10B    -0.8948  -1.3413   0.4619   H         1 1      0.0000
    28 H9B     -1.2354   1.3501  -1.0053   H         1 1      0.0000
    29 H5      -6.7058   0.2510   0.7863   H         1 1      0.0000
    30 H3      -2.5943   1.2960   1.5098   H         1 1      0.0000
    31 H12B     1.5623   0.7514   1.6213   H         1 1      0.0000
    32 C15      3.5040   1.4325  -1.4085   C.3       1 1      0.0000
    33 H15A     3.6473   0.4560  -1.8815   H         1 1      0.0000
    34 H15B     2.4905   1.7841  -1.6243   H         1 1      0.0000
    35 H15C     4.2147   2.1344  -1.8546   H         1 1      0.0000
    36 O2       1.1492  -1.4851  -0.8085   O.3       1 1      0.0000
    37 H21      0.5848  -1.5478  -1.6232   H         1 1      0.0000
    38 H22      1.0108   0.5424  -0.8165   H         1 1      0.0000
@<TRIPOS>BOND
     1     1     2   ar
     2     1     6   ar
     3     1    29    1
     4     2     3   ar
     5     2     7    1
     6     3     4   ar
     7     3    30    1
     8     4     5   ar
     9     4     8    1
    10     5     6   ar
    11     5     9    1
    12     6    10    1
    13     8    11    1
    14     8    12    1
    15     8    28    1
    16    11    13    1
    17    11    26    1
    18    11    27    1
    19    13    14    1
    20    14    15    1
    21    14    16    1
    22    14    31    1
    23    16    17    1
    24    16    20    2
    25    17    18    1
    26    17    19    1
    27    17    32    1
    28    20    21    1
    29    20    22    1
    30    22    23    1
    31    22    24    1
    32    22    25    1
    33    32    33    1
    34    32    34    1
    35    32    35    1
    36    13    36    1
    37    36    37    1
    38    13    38    1
@<TRIPOS>SUBSTRUCTURE
     1 1           1 GROUP             0 ****  ****    0  
@<TRIPOS>MOLECULE
Molecule Name_00001_00132
    38    38     1     0     0
SMALL
NO_CHARGES
****
Generated from the CSD

@<TRIPOS>ATOM
     1 C5      -5.6982   0.2416  -0.5007   C.ar      1 1      0.0000
     2 C4      -4.7081  -0.1275  -1.4182   C.ar      1 1      0.0000
     3 C3      -3.3988  -0.3562  -0.9816   C.ar      1 1      0.0000
     4 C8      -3.0655  -0.2184   0.3749   C.ar      1 1      0.0000
     5 C7      -4.0626   0.1599   1.2869   C.ar      1 1      0.0000
     6 C6      -5.3725   0.3897   0.8520   C.ar      1 1      0.0000
     7 H4      -4.9534  -0.2294  -2.4704   H         1 1      0.0000
     8 C9      -1.6602  -0.5377   0.8577   C.3       1 1      0.0000
     9 H7      -3.8126   0.2895   2.3376   H         1 1      0.0000
    10 H6      -6.1342   0.6897   1.5644   H         1 1      0.0000
    11 C10     -0.6282   0.3209   0.0865   C.3       1 1      0.0000
    12 H9A     -1.5686  -0.3379   1.9311   H         1 1      0.0000
    13 C11      0.7963   0.0740   0.4968   C.3       1 1      0.0000
    14 C12      1.8626   0.2285  -0.6006   C.3       1 1      0.0000
    15 H12A     1.8626   1.2684  -0.9567   H         1 1      0.0000
    16 C13      3.2871  -0.1706  -0.2792   C.2       1 1      0.0000
    17 C14      4.0763   0.7331   0.6227   C.3       1 1      0.0000
    18 H14B     4.8885   0.1596   1.0831   H         1 1      0.0000
    19 H14A     3.4479   1.1331   1.4235   H         1 1      0.0000
    20 N        3.7729  -1.2755  -0.7633   N.pl3     1 1      0.0000
    21 HN       3.0927  -1.8306  -1.3400   H         1 1      0.0000
    22 C        5.1561  -1.8025  -0.5711   C.3       1 1      0.0000
    23 H1A      5.1906  -2.7981  -1.0155   H         1 1      0.0000
    24 H1C      5.8759  -1.1524  -1.0787   H         1 1      0.0000
    25 H1B      5.3956  -1.8679   0.4931   H         1 1      0.0000
    26 H10A    -0.7191   0.1380  -0.9964   H         1 1      0.0000
    27 H10B    -0.8528   1.3908   0.2232   H         1 1      0.0000
    28 H9B     -1.4346  -1.5992   0.7074   H         1 1      0.0000
    29 H5      -6.7132   0.4228  -0.8389   H         1 1      0.0000
    30 H3      -2.6303  -0.6286  -1.7017   H         1 1      0.0000
    31 H12B     1.5396  -0.3690  -1.4691   H         1 1      0.0000
    32 C15      4.6957   1.9176  -0.1944   C.3       1 1      0.0000
    33 H15A     5.3749   1.5533  -0.9713   H         1 1      0.0000
    34 H15B     3.9185   2.5290  -0.6629   H         1 1      0.0000
    35 H15C     5.2685   2.5520   0.4884   H         1 1      0.0000
    36 O2       1.1136   0.9620   1.5505   O.3       1 1      0.0000
    37 H21      0.5045   0.7971   2.3171   H         1 1      0.0000
    38 H22      0.8609  -0.9415   0.8849   H         1 1      0.0000
@<TRIPOS>BOND
     1     1     2   ar
     2     1     6   ar
     3     1    29    1
     4     2     3   ar
     5     2     7    1
     6     3     4   ar
     7     3    30    1
     8     4     5   ar
     9     4     8    1
    10     5     6   ar
    11     5     9    1
    12     6    10    1
    13     8    11    1
    14     8    12    1
    15     8    28    1
    16    11    13    1
    17    11    26    1
    18    11    27    1
    19    13    14    1
    20    14    15    1
    21    14    16    1
    22    14    31    1
    23    16    17    1
    24    16    20    2
    25    17    18    1
    26    17    19    1
    27    17    32    1
    28    20    21    1
    29    20    22    1
    30    22    23    1
    31    22    24    1
    32    22    25    1
    33    32    33    1
    34    32    34    1
    35    32    35    1
    36    13    36    1
    37    36    37    1
    38    13    38    1
@<TRIPOS>SUBSTRUCTURE
     1 1           1 GROUP             0 ****  ****    0  
@<TRIPOS>MOLECULE
Molecule Name_00001_00133
    38    38     1     0     0
SMALL
NO_CHARGES
****
Generated from the CSD

@<TRIPOS>ATOM
     1 C5      -4.8057   1.0431  -0.8618   C.ar      1 1      0.0000
     2 C4      -3.6871   0.9370  -1.6961   C.ar      1 1      0.0000
     3 C3      -2.5299   0.2980  -1.2381   C.ar      1 1      0.0000
     4 C8      -2.4782  -0.2408   0.0569   C.ar      1 1      0.0000
     5 C7      -3.6014  -0.1229   0.8896   C.ar      1 1      0.0000
     6 C6      -4.7595   0.5164   0.4336   C.ar      1 1      0.0000
     7 H4      -3.7138   1.3569  -2.6965   H         1 1      0.0000
     8 C9      -1.2466  -0.9976   0.5262   C.3       1 1      0.0000
     9 H7      -3.5670  -0.5186   1.9023   H         1 1      0.0000
    10 H6      -5.6197   0.6092   1.0887   H         1 1      0.0000
    11 C10     -0.2108  -0.0091   1.1151   C.3       1 1      0.0000
    12 H9A     -1.5177  -1.7362   1.2888   H         1 1      0.0000
    13 C11      1.0467  -0.6678   1.6080   C.3       1 1      0.0000
    14 C12      2.3522   0.1251   1.4276   C.3       1 1      0.0000
    15 H12A     3.1113  -0.2728   2.1157   H         1 1      0.0000
    16 C13      2.9554   0.2097   0.0417   C.2       1 1      0.0000
    17 C14      2.2572   1.0713  -0.9698   C.3       1 1      0.0000
    18 H14B     2.9921   1.4427  -1.6927   H         1 1      0.0000
    19 H14A     1.7871   1.9349  -0.4907   H         1 1      0.0000
    20 N        4.0535  -0.4340  -0.2249   N.pl3     1 1      0.0000
    21 HN       4.4559  -0.9588   0.5913   H         1 1      0.0000
    22 C        4.7639  -0.4827  -1.5367   C.3       1 1      0.0000
    23 H1A      5.7029  -1.0152  -1.3796   H         1 1      0.0000
    24 H1C      4.1566  -1.0245  -2.2689   H         1 1      0.0000
    25 H1B      4.9717   0.5279  -1.8965   H         1 1      0.0000
    26 H10A     0.0605   0.7470   0.3607   H         1 1      0.0000
    27 H10B    -0.6613   0.5552   1.9472   H         1 1      0.0000
    28 H9B     -0.7928  -1.5463  -0.3064   H         1 1      0.0000
    29 H5      -5.7025   1.5417  -1.2147   H         1 1      0.0000
    30 H3      -1.6586   0.2316  -1.8860   H         1 1      0.0000
    31 H12B     2.1691   1.1562   1.7721   H         1 1      0.0000
    32 C15      1.1694   0.2447  -1.7362   C.3       1 1      0.0000
    33 H15A     1.5290  -0.0708  -2.7205   H         1 1      0.0000
    34 H15B     0.8684  -0.6416  -1.1694   H         1 1      0.0000
    35 H15C     0.2881   0.8763  -1.8821   H         1 1      0.0000
    36 O2       0.8877  -0.9514   2.9841   O.3       1 1      0.0000
    37 H21      0.1127  -1.5595   3.1093   H         1 1      0.0000
    38 H22      1.1558  -1.6151   1.0820   H         1 1      0.0000
@<TRIPOS>BOND
     1     1     2   ar
     2     1     6   ar
     3     1    29    1
     4     2     3   ar
     5     2     7    1
     6     3     4   ar
     7     3    30    1
     8     4     5   ar
     9     4     8    1
    10     5     6   ar
    11     5     9    1
    12     6    10    1
    13     8    11    1
    14     8    12    1
    15     8    28    1
    16    11    13    1
    17    11    26    1
    18    11    27    1
    19    13    14    1
    20    14    15    1
    21    14    16    1
    22    14    31    1
    23    16    17    1
    24    16    20    2
    25    17    18    1
    26    17    19    1
    27    17    32    1
    28    20    21    1
    29    20    22    1
    30    22    23    1
    31    22    24    1
    32    22    25    1
    33    32    33    1
    34    32    34    1
    35    32    35    1
    36    13    36    1
    37    36    37    1
    38    13    38    1
@<TRIPOS>SUBSTRUCTURE
     1 1           1 GROUP             0 ****  ****    0  
@<TRIPOS>MOLECULE
Molecule Name_00001_00134
    38    38     1     0     0
SMALL
NO_CHARGES
****
Generated from the CSD

@<TRIPOS>ATOM
     1 C5      -5.6759   0.4979  -0.1153   C.ar      1 1      0.0000
     2 C4      -4.9517   0.5210  -1.3126   C.ar      1 1      0.0000
     3 C3      -3.6089   0.1288  -1.3265   C.ar      1 1      0.0000
     4 C8      -2.9763  -0.2899  -0.1456   C.ar      1 1      0.0000
     5 C7      -3.7075  -0.3024   1.0519   C.ar      1 1      0.0000
     6 C6      -5.0504   0.0902   1.0681   C.ar      1 1      0.0000
     7 H4      -5.4291   0.8504  -2.2298   H         1 1      0.0000
     8 C9      -1.5394  -0.7842  -0.1767   C.3       1 1      0.0000
     9 H7      -3.2232  -0.6056   1.9775   H         1 1      0.0000
    10 H6      -5.6045   0.0845   2.0012   H         1 1      0.0000
    11 C10     -0.6401   0.1507   0.6684   C.3       1 1      0.0000
    12 H9A     -1.4758  -1.8039   0.2190   H         1 1      0.0000
    13 C11      0.8054  -0.2592   0.6978   C.3       1 1      0.0000
    14 C12      1.7568   0.5154  -0.2297   C.3       1 1      0.0000
    15 H12A     1.7568   1.5754   0.0611   H         1 1      0.0000
    16 C13      3.1919   0.0463  -0.3402   C.2       1 1      0.0000
    17 C14      4.1133   0.8289  -1.2299   C.3       1 1      0.0000
    18 H14B     3.5667   1.1402  -2.1270   H         1 1      0.0000
    19 H14A     4.9639   0.2185  -1.5463   H         1 1      0.0000
    20 N        3.5877  -0.9872   0.3428   N.pl3     1 1      0.0000
    21 HN       2.8476  -1.4077   0.9584   H         1 1      0.0000
    22 C        4.9501  -1.5969   0.3308   C.3       1 1      0.0000
    23 H1A      4.9674  -2.3719   1.0983   H         1 1      0.0000
    24 H1C      5.1471  -2.0486  -0.6468   H         1 1      0.0000
    25 H1B      5.7083  -0.8425   0.5548   H         1 1      0.0000
    26 H10A    -0.7055   1.1827   0.2876   H         1 1      0.0000
    27 H10B    -1.0137   0.1959   1.7038   H         1 1      0.0000
    28 H9B     -1.1661  -0.8144  -1.2062   H         1 1      0.0000
    29 H5      -6.7164   0.8054  -0.1026   H         1 1      0.0000
    30 H3      -3.0471   0.1629  -2.2575   H         1 1      0.0000
    31 H12B     1.3244   0.4990  -1.2437   H         1 1      0.0000
    32 C15      4.6359   2.1065  -0.4891   C.3       1 1      0.0000
    33 H15A     3.8113   2.7681  -0.2061   H         1 1      0.0000
    34 H15B     5.2022   1.8436   0.4095   H         1 1      0.0000
    35 H15C     5.2974   2.6568  -1.1647   H         1 1      0.0000
    36 O2       1.2759  -0.1272   2.0247   O.3       1 1      0.0000
    37 H21      0.7433  -0.7125   2.6245   H         1 1      0.0000
    38 H22      0.8595  -1.3127   0.4274   H         1 1      0.0000
@<TRIPOS>BOND
     1     1     2   ar
     2     1     6   ar
     3     1    29    1
     4     2     3   ar
     5     2     7    1
     6     3     4   ar
     7     3    30    1
     8     4     5   ar
     9     4     8    1
    10     5     6   ar
    11     5     9    1
    12     6    10    1
    13     8    11    1
    14     8    12    1
    15     8    28    1
    16    11    13    1
    17    11    26    1
    18    11    27    1
    19    13    14    1
    20    14    15    1
    21    14    16    1
    22    14    31    1
    23    16    17    1
    24    16    20    2
    25    17    18    1
    26    17    19    1
    27    17    32    1
    28    20    21    1
    29    20    22    1
    30    22    23    1
    31    22    24    1
    32    22    25    1
    33    32    33    1
    34    32    34    1
    35    32    35    1
    36    13    36    1
    37    36    37    1
    38    13    38    1
@<TRIPOS>SUBSTRUCTURE
     1 1           1 GROUP             0 ****  ****    0  
@<TRIPOS>MOLECULE
Molecule Name_00001_00135
    38    38     1     0     0
SMALL
NO_CHARGES
****
Generated from the CSD

@<TRIPOS>ATOM
     1 C5      -5.6410   0.4987  -0.1259   C.ar      1 1      0.0000
     2 C4      -4.8572   0.8844  -1.2192   C.ar      1 1      0.0000
     3 C3      -3.5031   0.5361  -1.2678   C.ar      1 1      0.0000
     4 C8      -2.9187  -0.2002  -0.2255   C.ar      1 1      0.0000
     5 C7      -3.7098  -0.5758   0.8708   C.ar      1 1      0.0000
     6 C6      -5.0641  -0.2278   0.9216   C.ar      1 1      0.0000
     7 H4      -5.2974   1.4604  -2.0268   H         1 1      0.0000
     8 C9      -1.4664  -0.6394  -0.3147   C.3       1 1      0.0000
     9 H7      -3.2640  -1.1293   1.6943   H         1 1      0.0000
    10 H6      -5.6650  -0.5165   1.7779   H         1 1      0.0000
    11 C10     -0.6435   0.0211   0.8181   C.3       1 1      0.0000
    12 H9A     -1.3894  -1.7292  -0.2312   H         1 1      0.0000
    13 C11      0.8114  -0.3550   0.8119   C.3       1 1      0.0000
    14 C12      1.7830   0.6735   0.2090   C.3       1 1      0.0000
    15 H12A     1.7327   1.6013   0.7962   H         1 1      0.0000
    16 C13      3.2367   0.2816   0.0512   C.2       1 1      0.0000
    17 C14      4.1762   1.3061  -0.5150   C.3       1 1      0.0000
    18 H14B     5.1988   1.0658  -0.2035   H         1 1      0.0000
    19 H14A     3.9351   2.3061  -0.1434   H         1 1      0.0000
    20 N        3.6310  -0.9001   0.4246   N.pl3     1 1      0.0000
    21 HN       2.8746  -1.4951   0.8457   H         1 1      0.0000
    22 C        5.0118  -1.4565   0.3155   C.3       1 1      0.0000
    23 H1A      5.0153  -2.4222   0.8228   H         1 1      0.0000
    24 H1C      5.2738  -1.5980  -0.7379   H         1 1      0.0000
    25 H1B      5.7318  -0.7886   0.7945   H         1 1      0.0000
    26 H10A    -0.7235   1.1183   0.7523   H         1 1      0.0000
    27 H10B    -1.0713  -0.2459   1.7977   H         1 1      0.0000
    28 H9B     -1.0397  -0.3599  -1.2843   H         1 1      0.0000
    29 H5      -6.6904   0.7715  -0.0854   H         1 1      0.0000
    30 H3      -2.8956   0.8513  -2.1133   H         1 1      0.0000
    31 H12B     1.4042   0.9482  -0.7892   H         1 1      0.0000
    32 C15      4.1120   1.3026  -2.0803   C.3       1 1      0.0000
    33 H15A     4.4016   0.3294  -2.4886   H         1 1      0.0000
    34 H15B     3.1090   1.5521  -2.4394   H         1 1      0.0000
    35 H15C     4.8110   2.0532  -2.4610   H         1 1      0.0000
    36 O2       1.2082  -0.6105   2.1448   O.3       1 1      0.0000
    37 H21      0.6652  -1.3549   2.5149   H         1 1      0.0000
    38 H22      0.9144  -1.2817   0.2492   H         1 1      0.0000
@<TRIPOS>BOND
     1     1     2   ar
     2     1     6   ar
     3     1    29    1
     4     2     3   ar
     5     2     7    1
     6     3     4   ar
     7     3    30    1
     8     4     5   ar
     9     4     8    1
    10     5     6   ar
    11     5     9    1
    12     6    10    1
    13     8    11    1
    14     8    12    1
    15     8    28    1
    16    11    13    1
    17    11    26    1
    18    11    27    1
    19    13    14    1
    20    14    15    1
    21    14    16    1
    22    14    31    1
    23    16    17    1
    24    16    20    2
    25    17    18    1
    26    17    19    1
    27    17    32    1
    28    20    21    1
    29    20    22    1
    30    22    23    1
    31    22    24    1
    32    22    25    1
    33    32    33    1
    34    32    34    1
    35    32    35    1
    36    13    36    1
    37    36    37    1
    38    13    38    1
@<TRIPOS>SUBSTRUCTURE
     1 1           1 GROUP             0 ****  ****    0  
@<TRIPOS>MOLECULE
Molecule Name_00001_00136
    38    38     1     0     0
SMALL
NO_CHARGES
****
Generated from the CSD

@<TRIPOS>ATOM
     1 C5      -5.6400   0.5023  -0.3644   C.ar      1 1      0.0000
     2 C4      -5.3665   0.1902   0.9722   C.ar      1 1      0.0000
     3 C3      -4.0606  -0.1212   1.3656   C.ar      1 1      0.0000
     4 C8      -3.0155  -0.1243   0.4286   C.ar      1 1      0.0000
     5 C7      -3.2999   0.1818  -0.9109   C.ar      1 1      0.0000
     6 C6      -4.6055   0.4929  -1.3065   C.ar      1 1      0.0000
     7 H4      -6.1686   0.1822   1.7032   H         1 1      0.0000
     8 C9      -1.5865  -0.3917   0.8716   C.3       1 1      0.0000
     9 H7      -2.5024   0.1632  -1.6504   H         1 1      0.0000
    10 H6      -4.8159   0.7203  -2.3465   H         1 1      0.0000
    11 C10     -0.6361  -0.3420  -0.3495   C.3       1 1      0.0000
    12 H9A     -1.2680   0.3526   1.6099   H         1 1      0.0000
    13 C11      0.8049  -0.5994  -0.0096   C.3       1 1      0.0000
    14 C12      1.8353   0.3713  -0.6108   C.3       1 1      0.0000
    15 H12A     1.6329   1.3852  -0.2378   H         1 1      0.0000
    16 C13      3.3058   0.0702  -0.4139   C.2       1 1      0.0000
    17 C14      4.2975   1.0414  -0.9850   C.3       1 1      0.0000
    18 H14B     3.9346   1.3946  -1.9567   H         1 1      0.0000
    19 H14A     5.2690   0.5634  -1.1398   H         1 1      0.0000
    20 N        3.6647  -0.9877   0.2519   N.pl3     1 1      0.0000
    21 HN       2.8640  -1.5508   0.6330   H         1 1      0.0000
    22 C        5.0606  -1.4465   0.5145   C.3       1 1      0.0000
    23 H1A      5.0018  -2.2982   1.1935   H         1 1      0.0000
    24 H1C      5.5317  -1.7602  -0.4226   H         1 1      0.0000
    25 H1B      5.6444  -0.6478   0.9785   H         1 1      0.0000
    26 H10A    -0.9556  -1.0763  -1.1065   H         1 1      0.0000
    27 H10B    -0.7105   0.6399  -0.8435   H         1 1      0.0000
    28 H9B     -1.5107  -1.3738   1.3513   H         1 1      0.0000
    29 H5      -6.6532   0.7403  -0.6713   H         1 1      0.0000
    30 H3      -3.8568  -0.3772   2.4030   H         1 1      0.0000
    31 H12B     1.6513   0.4261  -1.6964   H         1 1      0.0000
    32 C15      4.4690   2.2733  -0.0326   C.3       1 1      0.0000
    33 H15A     3.5236   2.8085   0.1004   H         1 1      0.0000
    34 H15B     4.8443   1.9698   0.9494   H         1 1      0.0000
    35 H15C     5.1908   2.9634  -0.4793   H         1 1      0.0000
    36 O2       0.9395  -0.5719   1.3977   O.3       1 1      0.0000
    37 H21      0.6242  -1.4336   1.7773   H         1 1      0.0000
    38 H22      1.0540  -1.6036  -0.3494   H         1 1      0.0000
@<TRIPOS>BOND
     1     1     2   ar
     2     1     6   ar
     3     1    29    1
     4     2     3   ar
     5     2     7    1
     6     3     4   ar
     7     3    30    1
     8     4     5   ar
     9     4     8    1
    10     5     6   ar
    11     5     9    1
    12     6    10    1
    13     8    11    1
    14     8    12    1
    15     8    28    1
    16    11    13    1
    17    11    26    1
    18    11    27    1
    19    13    14    1
    20    14    15    1
    21    14    16    1
    22    14    31    1
    23    16    17    1
    24    16    20    2
    25    17    18    1
    26    17    19    1
    27    17    32    1
    28    20    21    1
    29    20    22    1
    30    22    23    1
    31    22    24    1
    32    22    25    1
    33    32    33    1
    34    32    34    1
    35    32    35    1
    36    13    36    1
    37    36    37    1
    38    13    38    1
@<TRIPOS>SUBSTRUCTURE
     1 1           1 GROUP             0 ****  ****    0  
@<TRIPOS>MOLECULE
Molecule Name_00001_00137
    38    38     1     0     0
SMALL
NO_CHARGES
****
Generated from the CSD

@<TRIPOS>ATOM
     1 C5      -5.6376   0.5737  -0.3641   C.ar      1 1      0.0000
     2 C4      -5.4284  -0.1281   0.8284   C.ar      1 1      0.0000
     3 C3      -4.1368  -0.5263   1.1894   C.ar      1 1      0.0000
     4 C8      -3.0419  -0.2279   0.3634   C.ar      1 1      0.0000
     5 C7      -3.2616   0.4691  -0.8344   C.ar      1 1      0.0000
     6 C6      -4.5528   0.8676  -1.1976   C.ar      1 1      0.0000
     7 H4      -6.2690  -0.3707   1.4705   H         1 1      0.0000
     8 C9      -1.6316  -0.5975   0.7927   C.3       1 1      0.0000
     9 H7      -2.4242   0.6889  -1.4930   H         1 1      0.0000
    10 H6      -4.7127   1.3991  -2.1301   H         1 1      0.0000
    11 C10     -0.6172  -0.1633  -0.2933   C.3       1 1      0.0000
    12 H9A     -1.3790  -0.1101   1.7409   H         1 1      0.0000
    13 C11      0.8104  -0.4918   0.0418   C.3       1 1      0.0000
    14 C12      1.8402   0.6308  -0.1696   C.3       1 1      0.0000
    15 H12A     1.5844   1.4792   0.4808   H         1 1      0.0000
    16 C13      3.3066   0.3050   0.0181   C.2       1 1      0.0000
    17 C14      4.2961   1.4183  -0.1671   C.3       1 1      0.0000
    18 H14B     5.2169   1.1732   0.3739   H         1 1      0.0000
    19 H14A     3.9074   2.3584   0.2344   H         1 1      0.0000
    20 N        3.6625  -0.9006   0.3514   N.pl3     1 1      0.0000
    21 HN       2.8608  -1.5646   0.4921   H         1 1      0.0000
    22 C        5.0560  -1.3978   0.5488   C.3       1 1      0.0000
    23 H1A      4.9875  -2.4171   0.9314   H         1 1      0.0000
    24 H1C      5.5882  -1.4032  -0.4078   H         1 1      0.0000
    25 H1B      5.5868  -0.7710   1.2695   H         1 1      0.0000
    26 H10A    -0.8701  -0.6354  -1.2563   H         1 1      0.0000
    27 H10B    -0.6963   0.9215  -0.4687   H         1 1      0.0000
    28 H9B     -1.5504  -1.6780   0.9545   H         1 1      0.0000
    29 H5      -6.6395   0.8798  -0.6469   H         1 1      0.0000
    30 H3      -3.9824  -1.0843   2.1104   H         1 1      0.0000
    31 H12B     1.7149   1.0124  -1.1964   H         1 1      0.0000
    32 C15      4.6369   1.6016  -1.6852   C.3       1 1      0.0000
    33 H15A     5.0802   0.6939  -2.1062   H         1 1      0.0000
    34 H15B     3.7467   1.8620  -2.2657   H         1 1      0.0000
    35 H15C     5.3634   2.4133  -1.7853   H         1 1      0.0000
    36 O2       0.8659  -0.8940   1.3962   O.3       1 1      0.0000
    37 H21      0.5583  -1.8349   1.4750   H         1 1      0.0000
    38 H22      1.1107  -1.3403  -0.5712   H         1 1      0.0000
@<TRIPOS>BOND
     1     1     2   ar
     2     1     6   ar
     3     1    29    1
     4     2     3   ar
     5     2     7    1
     6     3     4   ar
     7     3    30    1
     8     4     5   ar
     9     4     8    1
    10     5     6   ar
    11     5     9    1
    12     6    10    1
    13     8    11    1
    14     8    12    1
    15     8    28    1
    16    11    13    1
    17    11    26    1
    18    11    27    1
    19    13    14    1
    20    14    15    1
    21    14    16    1
    22    14    31    1
    23    16    17    1
    24    16    20    2
    25    17    18    1
    26    17    19    1
    27    17    32    1
    28    20    21    1
    29    20    22    1
    30    22    23    1
    31    22    24    1
    32    22    25    1
    33    32    33    1
    34    32    34    1
    35    32    35    1
    36    13    36    1
    37    36    37    1
    38    13    38    1
@<TRIPOS>SUBSTRUCTURE
     1 1           1 GROUP             0 ****  ****    0  
@<TRIPOS>MOLECULE
Molecule Name_00001_00138
    38    38     1     0     0
SMALL
NO_CHARGES
****
Generated from the CSD

@<TRIPOS>ATOM
     1 C5      -4.6759   1.5547   0.3682   C.ar      1 1      0.0000
     2 C4      -4.3520   1.0904  -0.9117   C.ar      1 1      0.0000
     3 C3      -3.3108   0.1714  -1.0807   C.ar      1 1      0.0000
     4 C8      -2.5830  -0.2925   0.0262   C.ar      1 1      0.0000
     5 C7      -2.9090   0.1843   1.3050   C.ar      1 1      0.0000
     6 C6      -3.9496   1.1039   1.4759   C.ar      1 1      0.0000
     7 H4      -4.9034   1.4485  -1.7751   H         1 1      0.0000
     8 C9      -1.5009  -1.3450  -0.1514   C.3       1 1      0.0000
     9 H7      -2.3394  -0.1522   2.1684   H         1 1      0.0000
    10 H6      -4.1882   1.4724   2.4684   H         1 1      0.0000
    11 C10     -0.1534  -0.6652  -0.4965   C.3       1 1      0.0000
    12 H9A     -1.3856  -1.9350   0.7646   H         1 1      0.0000
    13 C11      0.9821  -1.6300  -0.6915   C.3       1 1      0.0000
    14 C12      2.3298  -1.0252  -1.1198   C.3       1 1      0.0000
    15 H12A     2.2289  -0.6037  -2.1298   H         1 1      0.0000
    16 C13      2.9665   0.0163  -0.2245   C.2       1 1      0.0000
    17 C14      2.8966   1.4494  -0.6653   C.3       1 1      0.0000
    18 H14B     3.0289   1.4971  -1.7519   H         1 1      0.0000
    19 H14A     3.6908   2.0410  -0.2011   H         1 1      0.0000
    20 N        3.5253  -0.3468   0.8922   N.pl3     1 1      0.0000
    21 HN       3.4589  -1.3755   1.0944   H         1 1      0.0000
    22 C        4.2187   0.5392   1.8731   C.3       1 1      0.0000
    23 H1A      4.4673  -0.0694   2.7436   H         1 1      0.0000
    24 H1C      5.1388   0.9351   1.4314   H         1 1      0.0000
    25 H1B      3.5644   1.3605   2.1753   H         1 1      0.0000
    26 H10A    -0.2600  -0.0580  -1.4099   H         1 1      0.0000
    27 H10B     0.1225   0.0463   0.2981   H         1 1      0.0000
    28 H9B     -1.7715  -2.0424  -0.9517   H         1 1      0.0000
    29 H5      -5.4808   2.2702   0.4999   H         1 1      0.0000
    30 H3      -3.0541  -0.1746  -2.0795   H         1 1      0.0000
    31 H12B     3.0499  -1.8530  -1.2282   H         1 1      0.0000
    32 C15      1.5046   2.0679  -0.2993   C.3       1 1      0.0000
    33 H15A     0.7242   1.7272  -0.9868   H         1 1      0.0000
    34 H15B     1.2106   1.8127   0.7233   H         1 1      0.0000
    35 H15C     1.5743   3.1570  -0.3763   H         1 1      0.0000
    36 O2       1.1776  -2.3341   0.5190   O.3       1 1      0.0000
    37 H21      0.3845  -2.9026   0.7030   H         1 1      0.0000
    38 H22      0.6822  -2.3496  -1.4519   H         1 1      0.0000
@<TRIPOS>BOND
     1     1     2   ar
     2     1     6   ar
     3     1    29    1
     4     2     3   ar
     5     2     7    1
     6     3     4   ar
     7     3    30    1
     8     4     5   ar
     9     4     8    1
    10     5     6   ar
    11     5     9    1
    12     6    10    1
    13     8    11    1
    14     8    12    1
    15     8    28    1
    16    11    13    1
    17    11    26    1
    18    11    27    1
    19    13    14    1
    20    14    15    1
    21    14    16    1
    22    14    31    1
    23    16    17    1
    24    16    20    2
    25    17    18    1
    26    17    19    1
    27    17    32    1
    28    20    21    1
    29    20    22    1
    30    22    23    1
    31    22    24    1
    32    22    25    1
    33    32    33    1
    34    32    34    1
    35    32    35    1
    36    13    36    1
    37    36    37    1
    38    13    38    1
@<TRIPOS>SUBSTRUCTURE
     1 1           1 GROUP             0 ****  ****    0  
@<TRIPOS>MOLECULE
Molecule Name_00001_00139
    38    38     1     0     0
SMALL
NO_CHARGES
****
Generated from the CSD

@<TRIPOS>ATOM
     1 C5      -4.4372  -1.5046   0.2096   C.ar      1 1      0.0000
     2 C4      -4.0152  -0.7609   1.3175   C.ar      1 1      0.0000
     3 C3      -3.1705   0.3403   1.1412   C.ar      1 1      0.0000
     4 C8      -2.7389   0.7093  -0.1424   C.ar      1 1      0.0000
     5 C7      -3.1602  -0.0467  -1.2468   C.ar      1 1      0.0000
     6 C6      -4.0045  -1.1488  -1.0725   C.ar      1 1      0.0000
     7 H4      -4.3369  -1.0423   2.3151   H         1 1      0.0000
     8 C9      -1.8807   1.9482  -0.3384   C.3       1 1      0.0000
     9 H7      -2.8166   0.2169  -2.2447   H         1 1      0.0000
    10 H6      -4.3179  -1.7315  -1.9327   H         1 1      0.0000
    11 C10     -0.5955   1.8424   0.5182   C.3       1 1      0.0000
    12 H9A     -1.6056   2.0614  -1.3929   H         1 1      0.0000
    13 C11      0.3960   0.8362   0.0057   C.3       1 1      0.0000
    14 C12      1.7375   0.7531   0.7532   C.3       1 1      0.0000
    15 H12A     1.5494   0.4600   1.7958   H         1 1      0.0000
    16 C13      2.8198  -0.1424   0.1889   C.2       1 1      0.0000
    17 C14      3.5453   0.3305  -1.0371   C.3       1 1      0.0000
    18 H14B     2.8319   0.8202  -1.7092   H         1 1      0.0000
    19 H14A     3.9951  -0.5094  -1.5742   H         1 1      0.0000
    20 N        3.1040  -1.2642   0.7822   N.pl3     1 1      0.0000
    21 HN       2.5484  -1.4443   1.6553   H         1 1      0.0000
    22 C        4.1156  -2.2724   0.3484   C.3       1 1      0.0000
    23 H1A      4.1753  -3.0316   1.1295   H         1 1      0.0000
    24 H1C      3.7973  -2.7393  -0.5892   H         1 1      0.0000
    25 H1B      5.0933  -1.8017   0.2197   H         1 1      0.0000
    26 H10A    -0.1002   2.8250   0.5786   H         1 1      0.0000
    27 H10B    -0.8565   1.5812   1.5562   H         1 1      0.0000
    28 H9B     -2.4353   2.8486  -0.0519   H         1 1      0.0000
    29 H5      -5.0893  -2.3611   0.3456   H         1 1      0.0000
    30 H3      -2.8341   0.9056   2.0076   H         1 1      0.0000
    31 H12B     2.1511   1.7732   0.8152   H         1 1      0.0000
    32 C15      4.6616   1.3594  -0.6505   C.3       1 1      0.0000
    33 H15A     4.2380   2.2405  -0.1585   H         1 1      0.0000
    34 H15B     5.4075   0.9095   0.0116   H         1 1      0.0000
    35 H15C     5.1655   1.6889  -1.5639   H         1 1      0.0000
    36 O2      -0.2105  -0.4407   0.0415   O.3       1 1      0.0000
    37 H21     -0.4982  -0.6963  -0.8738   H         1 1      0.0000
    38 H22      0.6079   1.0762  -1.0352   H         1 1      0.0000
@<TRIPOS>BOND
     1     1     2   ar
     2     1     6   ar
     3     1    29    1
     4     2     3   ar
     5     2     7    1
     6     3     4   ar
     7     3    30    1
     8     4     5   ar
     9     4     8    1
    10     5     6   ar
    11     5     9    1
    12     6    10    1
    13     8    11    1
    14     8    12    1
    15     8    28    1
    16    11    13    1
    17    11    26    1
    18    11    27    1
    19    13    14    1
    20    14    15    1
    21    14    16    1
    22    14    31    1
    23    16    17    1
    24    16    20    2
    25    17    18    1
    26    17    19    1
    27    17    32    1
    28    20    21    1
    29    20    22    1
    30    22    23    1
    31    22    24    1
    32    22    25    1
    33    32    33    1
    34    32    34    1
    35    32    35    1
    36    13    36    1
    37    36    37    1
    38    13    38    1
@<TRIPOS>SUBSTRUCTURE
     1 1           1 GROUP             0 ****  ****    0  
@<TRIPOS>MOLECULE
Molecule Name_00001_00140
    38    38     1     0     0
SMALL
NO_CHARGES
****
Generated from the CSD

@<TRIPOS>ATOM
     1 C5      -4.3104  -1.3513  -0.5037   C.ar      1 1      0.0000
     2 C4      -3.9466  -1.1443   0.8317   C.ar      1 1      0.0000
     3 C3      -3.1050  -0.0797   1.1714   C.ar      1 1      0.0000
     4 C8      -2.6184   0.7882   0.1813   C.ar      1 1      0.0000
     5 C7      -2.9816   0.5686  -1.1561   C.ar      1 1      0.0000
     6 C6      -3.8227  -0.4961  -1.4979   C.ar      1 1      0.0000
     7 H4      -4.3110  -1.8140   1.6041   H         1 1      0.0000
     8 C9      -1.7637   1.9861   0.5613   C.3       1 1      0.0000
     9 H7      -2.5951   1.2220  -1.9351   H         1 1      0.0000
    10 H6      -4.0909  -0.6618  -2.5364   H         1 1      0.0000
    11 C10     -0.5182   1.5175   1.3525   C.3       1 1      0.0000
    12 H9A     -1.4416   2.5274  -0.3352   H         1 1      0.0000
    13 C11      0.5051   0.8076   0.5114   C.3       1 1      0.0000
    14 C12      1.8116   0.4048   1.2157   C.3       1 1      0.0000
    15 H12A     1.5787  -0.2958   2.0301   H         1 1      0.0000
    16 C13      2.9270  -0.1837   0.3783   C.2       1 1      0.0000
    17 C14      3.7034   0.7512  -0.5026   C.3       1 1      0.0000
    18 H14B     4.6837   0.3111  -0.7165   H         1 1      0.0000
    19 H14A     3.8648   1.7128  -0.0070   H         1 1      0.0000
    20 N        3.1941  -1.4538   0.4596   N.pl3     1 1      0.0000
    21 HN       2.6008  -1.9770   1.1508   H         1 1      0.0000
    22 C        4.2339  -2.1986  -0.3100   C.3       1 1      0.0000
    23 H1A      4.2647  -3.2157   0.0833   H         1 1      0.0000
    24 H1C      3.9632  -2.2267  -1.3704   H         1 1      0.0000
    25 H1B      5.2120  -1.7279  -0.1851   H         1 1      0.0000
    26 H10A    -0.0354   2.3791   1.8412   H         1 1      0.0000
    27 H10B    -0.8241   0.8486   2.1727   H         1 1      0.0000
    28 H9B     -2.3392   2.6897   1.1729   H         1 1      0.0000
    29 H5      -4.9601  -2.1790  -0.7686   H         1 1      0.0000
    30 H3      -2.8139   0.0674   2.2092   H         1 1      0.0000
    31 H12B     2.2124   1.3007   1.7179   H         1 1      0.0000
    32 C15      2.9486   0.9828  -1.8557   C.3       1 1      0.0000
    33 H15A     2.5488   0.0452  -2.2542   H         1 1      0.0000
    34 H15B     2.1268   1.6955  -1.7377   H         1 1      0.0000
    35 H15C     3.6551   1.3891  -2.5855   H         1 1      0.0000
    36 O2      -0.0905  -0.3603  -0.0182   O.3       1 1      0.0000
    37 H21     -0.4132  -0.1786  -0.9396   H         1 1      0.0000
    38 H22      0.7622   1.4591  -0.3225   H         1 1      0.0000
@<TRIPOS>BOND
     1     1     2   ar
     2     1     6   ar
     3     1    29    1
     4     2     3   ar
     5     2     7    1
     6     3     4   ar
     7     3    30    1
     8     4     5   ar
     9     4     8    1
    10     5     6   ar
    11     5     9    1
    12     6    10    1
    13     8    11    1
    14     8    12    1
    15     8    28    1
    16    11    13    1
    17    11    26    1
    18    11    27    1
    19    13    14    1
    20    14    15    1
    21    14    16    1
    22    14    31    1
    23    16    17    1
    24    16    20    2
    25    17    18    1
    26    17    19    1
    27    17    32    1
    28    20    21    1
    29    20    22    1
    30    22    23    1
    31    22    24    1
    32    22    25    1
    33    32    33    1
    34    32    34    1
    35    32    35    1
    36    13    36    1
    37    36    37    1
    38    13    38    1
@<TRIPOS>SUBSTRUCTURE
     1 1           1 GROUP             0 ****  ****    0  
@<TRIPOS>MOLECULE
Molecule Name_00001_00141
    38    38     1     0     0
SMALL
NO_CHARGES
****
Generated from the CSD

@<TRIPOS>ATOM
     1 C5      -4.3231   1.6125   0.4006   C.ar      1 1      0.0000
     2 C4      -3.9125   1.2380  -0.8838   C.ar      1 1      0.0000
     3 C3      -3.1194   0.0993  -1.0613   C.ar      1 1      0.0000
     4 C8      -2.7285  -0.6761   0.0415   C.ar      1 1      0.0000
     5 C7      -3.1379  -0.2888   1.3266   C.ar      1 1      0.0000
     6 C6      -3.9306   0.8501   1.5062   C.ar      1 1      0.0000
     7 H4      -4.2027   1.8348  -1.7424   H         1 1      0.0000
     8 C9      -1.9282  -1.9522  -0.1607   C.3       1 1      0.0000
     9 H7      -2.8250  -0.8699   2.1912   H         1 1      0.0000
    10 H6      -4.2350   1.1452   2.5052   H         1 1      0.0000
    11 C10     -0.6235  -1.6414  -0.9340   C.3       1 1      0.0000
    12 H9A     -1.6784  -2.4055   0.8050   H         1 1      0.0000
    13 C11      0.4003  -0.8962  -0.1248   C.3       1 1      0.0000
    14 C12      1.7582  -0.6440  -0.8015   C.3       1 1      0.0000
    15 H12A     1.6052  -0.0119  -1.6877   H         1 1      0.0000
    16 C13      2.8746  -0.0474   0.0287   C.2       1 1      0.0000
    17 C14      2.7758   1.4073   0.3852   C.3       1 1      0.0000
    18 H14B     3.3842   1.6004   1.2757   H         1 1      0.0000
    19 H14A     1.7430   1.6851   0.6139   H         1 1      0.0000
    20 N        3.8585  -0.8003   0.4240   N.pl3     1 1      0.0000
    21 HN       3.7728  -1.8080   0.1398   H         1 1      0.0000
    22 C        5.0466  -0.3723   1.2198   C.3       1 1      0.0000
    23 H1A      5.6118  -1.2708   1.4711   H         1 1      0.0000
    24 H1C      5.6738   0.2965   0.6216   H         1 1      0.0000
    25 H1B      4.7310   0.1305   2.1372   H         1 1      0.0000
    26 H10A    -0.1698  -2.5766  -1.3001   H         1 1      0.0000
    27 H10B    -0.8532  -1.0536  -1.8371   H         1 1      0.0000
    28 H9B     -2.5153  -2.6889  -0.7200   H         1 1      0.0000
    29 H5      -4.9352   2.4976   0.5398   H         1 1      0.0000
    30 H3      -2.7911  -0.1785  -2.0605   H         1 1      0.0000
    31 H12B     2.1195  -1.6070  -1.1985   H         1 1      0.0000
    32 C15      3.3062   2.2967  -0.7903   C.3       1 1      0.0000
    33 H15A     4.3568   2.0823  -1.0093   H         1 1      0.0000
    34 H15B     2.7180   2.1476  -1.7009   H         1 1      0.0000
    35 H15C     3.2273   3.3478  -0.4973   H         1 1      0.0000
    36 O2      -0.1500   0.3534   0.2428   O.3       1 1      0.0000
    37 H21     -0.4625   0.3133   1.1844   H         1 1      0.0000
    38 H22      0.5818  -1.4626   0.7875   H         1 1      0.0000
@<TRIPOS>BOND
     1     1     2   ar
     2     1     6   ar
     3     1    29    1
     4     2     3   ar
     5     2     7    1
     6     3     4   ar
     7     3    30    1
     8     4     5   ar
     9     4     8    1
    10     5     6   ar
    11     5     9    1
    12     6    10    1
    13     8    11    1
    14     8    12    1
    15     8    28    1
    16    11    13    1
    17    11    26    1
    18    11    27    1
    19    13    14    1
    20    14    15    1
    21    14    16    1
    22    14    31    1
    23    16    17    1
    24    16    20    2
    25    17    18    1
    26    17    19    1
    27    17    32    1
    28    20    21    1
    29    20    22    1
    30    22    23    1
    31    22    24    1
    32    22    25    1
    33    32    33    1
    34    32    34    1
    35    32    35    1
    36    13    36    1
    37    36    37    1
    38    13    38    1
@<TRIPOS>SUBSTRUCTURE
     1 1           1 GROUP             0 ****  ****    0  
@<TRIPOS>MOLECULE
Molecule Name_00001_00142
    38    38     1     0     0
SMALL
NO_CHARGES
****
Generated from the CSD

@<TRIPOS>ATOM
     1 C5      -4.0056  -1.4270  -0.8882   C.ar      1 1      0.0000
     2 C4      -3.4875  -1.5224   0.4083   C.ar      1 1      0.0000
     3 C3      -2.7172  -0.4792   0.9333   C.ar      1 1      0.0000
     4 C8      -2.4566   0.6688   0.1689   C.ar      1 1      0.0000
     5 C7      -2.9730   0.7527  -1.1330   C.ar      1 1      0.0000
     6 C6      -3.7431  -0.2898  -1.6601   C.ar      1 1      0.0000
     7 H4      -3.6767  -2.4090   1.0049   H         1 1      0.0000
     8 C9      -1.6810   1.8310   0.7671   C.3       1 1      0.0000
     9 H7      -2.7614   1.6283  -1.7427   H         1 1      0.0000
    10 H6      -4.1310  -0.2182  -2.6711   H         1 1      0.0000
    11 C10     -0.1611   1.6063   0.5770   C.3       1 1      0.0000
    12 H9A     -1.9713   2.7728   0.2883   H         1 1      0.0000
    13 C11      0.3947   0.4785   1.4000   C.3       1 1      0.0000
    14 C12      1.9040   0.2135   1.2698   C.3       1 1      0.0000
    15 H12A     2.2175  -0.4743   2.0678   H         1 1      0.0000
    16 C13      2.4303  -0.3084  -0.0502   C.2       1 1      0.0000
    17 C14      2.6380   0.6833  -1.1576   C.3       1 1      0.0000
    18 H14B     1.8326   1.4257  -1.1298   H         1 1      0.0000
    19 H14A     2.6113   0.1912  -2.1340   H         1 1      0.0000
    20 N        2.7058  -1.5726  -0.1810   N.pl3     1 1      0.0000
    21 HN       2.5557  -2.1400   0.6901   H         1 1      0.0000
    22 C        3.2029  -2.2554  -1.4117   C.3       1 1      0.0000
    23 H1A      3.4358  -3.2863  -1.1413   H         1 1      0.0000
    24 H1C      2.4245  -2.2483  -2.1814   H         1 1      0.0000
    25 H1B      4.1037  -1.7622  -1.7850   H         1 1      0.0000
    26 H10A     0.0616   1.4103  -0.4843   H         1 1      0.0000
    27 H10B     0.3888   2.5278   0.8267   H         1 1      0.0000
    28 H9B     -1.9028   1.9312   1.8353   H         1 1      0.0000
    29 H5      -4.6001  -2.2371  -1.2977   H         1 1      0.0000
    30 H3      -2.3050  -0.5655   1.9363   H         1 1      0.0000
    31 H12B     2.4306   1.1578   1.4857   H         1 1      0.0000
    32 C15      4.0094   1.4203  -0.9831   C.3       1 1      0.0000
    33 H15A     4.0486   1.9700  -0.0375   H         1 1      0.0000
    34 H15B     4.8476   0.7179  -1.0183   H         1 1      0.0000
    35 H15C     4.1271   2.1388  -1.7996   H         1 1      0.0000
    36 O2       0.1067   0.7391   2.7596   O.3       1 1      0.0000
    37 H21     -0.8678   0.6328   2.9179   H         1 1      0.0000
    38 H22     -0.1302  -0.4324   1.1160   H         1 1      0.0000
@<TRIPOS>BOND
     1     1     2   ar
     2     1     6   ar
     3     1    29    1
     4     2     3   ar
     5     2     7    1
     6     3     4   ar
     7     3    30    1
     8     4     5   ar
     9     4     8    1
    10     5     6   ar
    11     5     9    1
    12     6    10    1
    13     8    11    1
    14     8    12    1
    15     8    28    1
    16    11    13    1
    17    11    26    1
    18    11    27    1
    19    13    14    1
    20    14    15    1
    21    14    16    1
    22    14    31    1
    23    16    17    1
    24    16    20    2
    25    17    18    1
    26    17    19    1
    27    17    32    1
    28    20    21    1
    29    20    22    1
    30    22    23    1
    31    22    24    1
    32    22    25    1
    33    32    33    1
    34    32    34    1
    35    32    35    1
    36    13    36    1
    37    36    37    1
    38    13    38    1
@<TRIPOS>SUBSTRUCTURE
     1 1           1 GROUP             0 ****  ****    0  
@<TRIPOS>MOLECULE
Molecule Name_00001_00143
    38    38     1     0     0
SMALL
NO_CHARGES
****
Generated from the CSD

@<TRIPOS>ATOM
     1 C5      -3.6276   1.9648   0.0311   C.ar      1 1      0.0000
     2 C4      -3.2015   1.2296  -1.0809   C.ar      1 1      0.0000
     3 C3      -2.5367   0.0117  -0.9023   C.ar      1 1      0.0000
     4 C8      -2.2907  -0.4837   0.3877   C.ar      1 1      0.0000
     5 C7      -2.7141   0.2638   1.4972   C.ar      1 1      0.0000
     6 C6      -3.3786   1.4824   1.3207   C.ar      1 1      0.0000
     7 H4      -3.3799   1.6073  -2.0825   H         1 1      0.0000
     8 C9      -1.6333  -1.8407   0.5778   C.3       1 1      0.0000
     9 H7      -2.5117  -0.0994   2.5023   H         1 1      0.0000
    10 H6      -3.6946   2.0565   2.1858   H         1 1      0.0000
    11 C10     -0.0927  -1.6877   0.5717   C.3       1 1      0.0000
    12 H9A     -1.9495  -2.2908   1.5254   H         1 1      0.0000
    13 C11      0.4765  -1.3189  -0.7692   C.3       1 1      0.0000
    14 C12      1.9984  -1.1063  -0.8332   C.3       1 1      0.0000
    15 H12A     2.3109  -1.0658  -1.8862   H         1 1      0.0000
    16 C13      2.5881   0.0855  -0.1096   C.2       1 1      0.0000
    17 C14      2.3378   1.4464  -0.6911   C.3       1 1      0.0000
    18 H14B     2.3928   1.3851  -1.7836   H         1 1      0.0000
    19 H14A     3.0935   2.1614  -0.3535   H         1 1      0.0000
    20 N        3.2625  -0.0944   0.9878   N.pl3     1 1      0.0000
    21 HN       3.3180  -1.0953   1.3018   H         1 1      0.0000
    22 C        3.9309   0.9586   1.8078   C.3       1 1      0.0000
    23 H1A      4.3048   0.4786   2.7132   H         1 1      0.0000
    24 H1C      4.7699   1.3875   1.2505   H         1 1      0.0000
    25 H1B      3.2191   1.7430   2.0762   H         1 1      0.0000
    26 H10A     0.2137  -0.9250   1.3058   H         1 1      0.0000
    27 H10B     0.3791  -2.6247   0.9081   H         1 1      0.0000
    28 H9B     -1.9334  -2.5279  -0.2209   H         1 1      0.0000
    29 H5      -4.1401   2.9113  -0.1062   H         1 1      0.0000
    30 H3      -2.1950  -0.5481  -1.7702   H         1 1      0.0000
    31 H12B     2.4811  -2.0111  -0.4284   H         1 1      0.0000
    32 C15      0.9151   1.9621  -0.2860   C.3       1 1      0.0000
    33 H15A     0.1611   1.6719  -1.0243   H         1 1      0.0000
    34 H15B     0.6155   1.5789   0.6942   H         1 1      0.0000
    35 H15C     0.9399   3.0547  -0.2361   H         1 1      0.0000
    36 O2       0.1324  -2.3347  -1.6907   O.3       1 1      0.0000
    37 H21     -0.7068  -2.0859  -2.1595   H         1 1      0.0000
    38 H22     -0.0035  -0.3968  -1.0938   H         1 1      0.0000
@<TRIPOS>BOND
     1     1     2   ar
     2     1     6   ar
     3     1    29    1
     4     2     3   ar
     5     2     7    1
     6     3     4   ar
     7     3    30    1
     8     4     5   ar
     9     4     8    1
    10     5     6   ar
    11     5     9    1
    12     6    10    1
    13     8    11    1
    14     8    12    1
    15     8    28    1
    16    11    13    1
    17    11    26    1
    18    11    27    1
    19    13    14    1
    20    14    15    1
    21    14    16    1
    22    14    31    1
    23    16    17    1
    24    16    20    2
    25    17    18    1
    26    17    19    1
    27    17    32    1
    28    20    21    1
    29    20    22    1
    30    22    23    1
    31    22    24    1
    32    22    25    1
    33    32    33    1
    34    32    34    1
    35    32    35    1
    36    13    36    1
    37    36    37    1
    38    13    38    1
@<TRIPOS>SUBSTRUCTURE
     1 1           1 GROUP             0 ****  ****    0  
@<TRIPOS>MOLECULE
Molecule Name_00001_00144
    38    38     1     0     0
SMALL
NO_CHARGES
****
Generated from the CSD

@<TRIPOS>ATOM
     1 C5      -3.8542   1.8180   0.3328   C.ar      1 1      0.0000
     2 C4      -3.3428   1.3515  -0.8835   C.ar      1 1      0.0000
     3 C3      -2.6406   0.1424  -0.9304   C.ar      1 1      0.0000
     4 C8      -2.4420  -0.6123   0.2363   C.ar      1 1      0.0000
     5 C7      -2.9511  -0.1332   1.4530   C.ar      1 1      0.0000
     6 C6      -3.6530   1.0762   1.5020   C.ar      1 1      0.0000
     7 H4      -3.4841   1.9310  -1.7901   H         1 1      0.0000
     8 C9      -1.7424  -1.9599   0.1706   C.3       1 1      0.0000
     9 H7      -2.7865  -0.6987   2.3675   H         1 1      0.0000
    10 H6      -4.0356   1.4415   2.4496   H         1 1      0.0000
    11 C10     -0.2107  -1.7670   0.2877   C.3       1 1      0.0000
    12 H9A     -2.0889  -2.6120   0.9800   H         1 1      0.0000
    13 C11      0.4118  -1.1026  -0.9079   C.3       1 1      0.0000
    14 C12      1.9254  -0.8397  -0.8356   C.3       1 1      0.0000
    15 H12A     2.2897  -0.5648  -1.8355   H         1 1      0.0000
    16 C13      2.4298   0.1840   0.1591   C.2       1 1      0.0000
    17 C14      2.1564   1.6308  -0.1321   C.3       1 1      0.0000
    18 H14B     2.1943   2.1984   0.8044   H         1 1      0.0000
    19 H14A     1.1616   1.7614  -0.5673   H         1 1      0.0000
    20 N        3.0535  -0.2095   1.2303   N.pl3     1 1      0.0000
    21 HN       3.1321  -1.2526   1.3262   H         1 1      0.0000
    22 C        3.6369   0.6601   2.2940   C.3       1 1      0.0000
    23 H1A      3.9823   0.0068   3.0964   H         1 1      0.0000
    24 H1C      4.4860   1.2217   1.8913   H         1 1      0.0000
    25 H1B      2.8820   1.3485   2.6815   H         1 1      0.0000
    26 H10A     0.0273  -1.1721   1.1843   H         1 1      0.0000
    27 H10B     0.2796  -2.7412   0.4433   H         1 1      0.0000
    28 H9B     -1.9737  -2.4669  -0.7727   H         1 1      0.0000
    29 H5      -4.3957   2.7574   0.3709   H         1 1      0.0000
    30 H3      -2.2329  -0.2078  -1.8762   H         1 1      0.0000
    31 H12B     2.4219  -1.7969  -0.6057   H         1 1      0.0000
    32 C15      3.2338   2.2052  -1.1137   C.3       1 1      0.0000
    33 H15A     4.2385   2.1401  -0.6847   H         1 1      0.0000
    34 H15B     3.2238   1.6764  -2.0716   H         1 1      0.0000
    35 H15C     3.0109   3.2599  -1.2999   H         1 1      0.0000
    36 O2       0.1557  -1.9052  -2.0435   O.3       1 1      0.0000
    37 H21     -0.8124  -1.8709  -2.2616   H         1 1      0.0000
    38 H22     -0.0868  -0.1458  -1.0557   H         1 1      0.0000
@<TRIPOS>BOND
     1     1     2   ar
     2     1     6   ar
     3     1    29    1
     4     2     3   ar
     5     2     7    1
     6     3     4   ar
     7     3    30    1
     8     4     5   ar
     9     4     8    1
    10     5     6   ar
    11     5     9    1
    12     6    10    1
    13     8    11    1
    14     8    12    1
    15     8    28    1
    16    11    13    1
    17    11    26    1
    18    11    27    1
    19    13    14    1
    20    14    15    1
    21    14    16    1
    22    14    31    1
    23    16    17    1
    24    16    20    2
    25    17    18    1
    26    17    19    1
    27    17    32    1
    28    20    21    1
    29    20    22    1
    30    22    23    1
    31    22    24    1
    32    22    25    1
    33    32    33    1
    34    32    34    1
    35    32    35    1
    36    13    36    1
    37    36    37    1
    38    13    38    1
@<TRIPOS>SUBSTRUCTURE
     1 1           1 GROUP             0 ****  ****    0  
@<TRIPOS>MOLECULE
Molecule Name_00001_00145
    38    38     1     0     0
SMALL
NO_CHARGES
****
Generated from the CSD

@<TRIPOS>ATOM
     1 C5      -4.7373   0.7964  -1.0835   C.ar      1 1      0.0000
     2 C4      -4.8370   0.6315   0.3026   C.ar      1 1      0.0000
     3 C3      -3.7819   0.0536   1.0168   C.ar      1 1      0.0000
     4 C8      -2.6177  -0.3653   0.3542   C.ar      1 1      0.0000
     5 C7      -2.5293  -0.2037  -1.0368   C.ar      1 1      0.0000
     6 C6      -3.5837   0.3735  -1.7530   C.ar      1 1      0.0000
     7 H4      -5.7359   0.9449   0.8236   H         1 1      0.0000
     8 C9      -1.4445  -0.9259   1.1412   C.3       1 1      0.0000
     9 H7      -1.6406  -0.5425  -1.5647   H         1 1      0.0000
    10 H6      -3.5083   0.4865  -2.8297   H         1 1      0.0000
    11 C10     -0.1680  -0.1006   0.8477   C.3       1 1      0.0000
    12 H9A     -1.6553  -0.8983   2.2161   H         1 1      0.0000
    13 C11      1.0502  -0.5820   1.5843   C.3       1 1      0.0000
    14 C12      2.3644   0.1636   1.2970   C.3       1 1      0.0000
    15 H12A     3.1192  -0.1429   2.0349   H         1 1      0.0000
    16 C13      2.9683   0.0478  -0.0863   C.2       1 1      0.0000
    17 C14      3.7670   1.2116  -0.5967   C.3       1 1      0.0000
    18 H14B     4.4547   0.8609  -1.3743   H         1 1      0.0000
    19 H14A     4.3617   1.6597   0.2044   H         1 1      0.0000
    20 N        2.8031  -1.0439  -0.7735   N.pl3     1 1      0.0000
    21 HN       2.2617  -1.7920  -0.2729   H         1 1      0.0000
    22 C        3.3027  -1.3143  -2.1538   C.3       1 1      0.0000
    23 H1A      3.0866  -2.3593  -2.3801   H         1 1      0.0000
    24 H1C      2.7817  -0.6716  -2.8707   H         1 1      0.0000
    25 H1B      4.3804  -1.1425  -2.2106   H         1 1      0.0000
    26 H10A     0.0476  -0.1105  -0.2330   H         1 1      0.0000
    27 H10B    -0.3379   0.9575   1.1032   H         1 1      0.0000
    28 H9B     -1.2691  -1.9739   0.8744   H         1 1      0.0000
    29 H5      -5.5564   1.2412  -1.6389   H         1 1      0.0000
    30 H3      -3.8713  -0.0854   2.0920   H         1 1      0.0000
    31 H12B     2.1929   1.2346   1.4944   H         1 1      0.0000
    32 C15      2.8207   2.2974  -1.2128   C.3       1 1      0.0000
    33 H15A     2.2492   1.8959  -2.0553   H         1 1      0.0000
    34 H15B     2.1225   2.6885  -0.4667   H         1 1      0.0000
    35 H15C     3.4322   3.1266  -1.5807   H         1 1      0.0000
    36 O2       0.7894  -0.5008   2.9716   O.3       1 1      0.0000
    37 H21      0.0902  -1.1621   3.2162   H         1 1      0.0000
    38 H22      1.1996  -1.6311   1.3332   H         1 1      0.0000
@<TRIPOS>BOND
     1     1     2   ar
     2     1     6   ar
     3     1    29    1
     4     2     3   ar
     5     2     7    1
     6     3     4   ar
     7     3    30    1
     8     4     5   ar
     9     4     8    1
    10     5     6   ar
    11     5     9    1
    12     6    10    1
    13     8    11    1
    14     8    12    1
    15     8    28    1
    16    11    13    1
    17    11    26    1
    18    11    27    1
    19    13    14    1
    20    14    15    1
    21    14    16    1
    22    14    31    1
    23    16    17    1
    24    16    20    2
    25    17    18    1
    26    17    19    1
    27    17    32    1
    28    20    21    1
    29    20    22    1
    30    22    23    1
    31    22    24    1
    32    22    25    1
    33    32    33    1
    34    32    34    1
    35    32    35    1
    36    13    36    1
    37    36    37    1
    38    13    38    1
@<TRIPOS>SUBSTRUCTURE
     1 1           1 GROUP             0 ****  ****    0  
@<TRIPOS>MOLECULE
Molecule Name_00001_00146
    38    38     1     0     0
SMALL
NO_CHARGES
****
Generated from the CSD

@<TRIPOS>ATOM
     1 C5      -4.9196  -0.0316  -1.2183   C.ar      1 1      0.0000
     2 C4      -5.1059   0.4183   0.0938   C.ar      1 1      0.0000
     3 C3      -4.0241   0.4612   0.9797   C.ar      1 1      0.0000
     4 C8      -2.7462   0.0552   0.5645   C.ar      1 1      0.0000
     5 C7      -2.5699  -0.4022  -0.7503   C.ar      1 1      0.0000
     6 C6      -3.6509  -0.4464  -1.6377   C.ar      1 1      0.0000
     7 H4      -6.0913   0.7273   0.4273   H         1 1      0.0000
     8 C9      -1.5589   0.1709   1.5061   C.3       1 1      0.0000
     9 H7      -1.5889  -0.7385  -1.0783   H         1 1      0.0000
    10 H6      -3.5052  -0.8095  -2.6500   H         1 1      0.0000
    11 C10     -0.2774  -0.3454   0.8075   C.3       1 1      0.0000
    12 H9A     -1.4112   1.2129   1.8111   H         1 1      0.0000
    13 C11      0.9548  -0.2702   1.6643   C.3       1 1      0.0000
    14 C12      2.2536  -0.8160   1.0472   C.3       1 1      0.0000
    15 H12A     2.1565  -1.9023   0.9102   H         1 1      0.0000
    16 C13      2.7427  -0.2087  -0.2503   C.2       1 1      0.0000
    17 C14      3.3934   1.1423  -0.1846   C.3       1 1      0.0000
    18 H14B     2.8582   1.7630   0.5426   H         1 1      0.0000
    19 H14A     3.3511   1.6449  -1.1551   H         1 1      0.0000
    20 N        2.6110  -0.8695  -1.3626   N.pl3     1 1      0.0000
    21 HN       2.1800  -1.8210  -1.2516   H         1 1      0.0000
    22 C        3.0100  -0.4114  -2.7260   C.3       1 1      0.0000
    23 H1A      2.8637  -1.2503  -3.4078   H         1 1      0.0000
    24 H1C      2.3765   0.4253  -3.0376   H         1 1      0.0000
    25 H1B      4.0603  -0.1103  -2.7358   H         1 1      0.0000
    26 H10A    -0.4182  -1.3895   0.4846   H         1 1      0.0000
    27 H10B    -0.0977   0.2259  -0.1173   H         1 1      0.0000
    28 H9B     -1.7344  -0.4097   2.4184   H         1 1      0.0000
    29 H5      -5.7588  -0.0687  -1.9051   H         1 1      0.0000
    30 H3      -4.1781   0.7980   2.0025   H         1 1      0.0000
    31 H12B     3.0565  -0.6945   1.7928   H         1 1      0.0000
    32 C15      4.8872   1.0096   0.2686   C.3       1 1      0.0000
    33 H15A     4.9631   0.5591   1.2631   H         1 1      0.0000
    34 H15B     5.4666   0.4070  -0.4374   H         1 1      0.0000
    35 H15C     5.3296   2.0091   0.3130   H         1 1      0.0000
    36 O2       1.1669   1.0826   2.0170   O.3       1 1      0.0000
    37 H21      0.4505   1.3791   2.6375   H         1 1      0.0000
    38 H22      0.7599  -0.8274   2.5794   H         1 1      0.0000
@<TRIPOS>BOND
     1     1     2   ar
     2     1     6   ar
     3     1    29    1
     4     2     3   ar
     5     2     7    1
     6     3     4   ar
     7     3    30    1
     8     4     5   ar
     9     4     8    1
    10     5     6   ar
    11     5     9    1
    12     6    10    1
    13     8    11    1
    14     8    12    1
    15     8    28    1
    16    11    13    1
    17    11    26    1
    18    11    27    1
    19    13    14    1
    20    14    15    1
    21    14    16    1
    22    14    31    1
    23    16    17    1
    24    16    20    2
    25    17    18    1
    26    17    19    1
    27    17    32    1
    28    20    21    1
    29    20    22    1
    30    22    23    1
    31    22    24    1
    32    22    25    1
    33    32    33    1
    34    32    34    1
    35    32    35    1
    36    13    36    1
    37    36    37    1
    38    13    38    1
@<TRIPOS>SUBSTRUCTURE
     1 1           1 GROUP             0 ****  ****    0  
@<TRIPOS>MOLECULE
Molecule Name_00001_00147
    38    38     1     0     0
SMALL
NO_CHARGES
****
Generated from the CSD

@<TRIPOS>ATOM
     1 C5      -4.7766   1.2155   0.9057   C.ar      1 1      0.0000
     2 C4      -5.0618  -0.0051   0.2834   C.ar      1 1      0.0000
     3 C3      -4.0337  -0.7464  -0.3089   C.ar      1 1      0.0000
     4 C8      -2.7115  -0.2761  -0.2859   C.ar      1 1      0.0000
     5 C7      -2.4356   0.9526   0.3330   C.ar      1 1      0.0000
     6 C6      -3.4625   1.6958   0.9254   C.ar      1 1      0.0000
     7 H4      -6.0819  -0.3742   0.2533   H         1 1      0.0000
     8 C9      -1.5861  -1.1170  -0.8659   C.3       1 1      0.0000
     9 H7      -1.4182   1.3376   0.3399   H         1 1      0.0000
    10 H6      -3.2394   2.6487   1.3943   H         1 1      0.0000
    11 C10     -0.2378  -0.3707  -0.7179   C.3       1 1      0.0000
    12 H9A     -1.5247  -2.0827  -0.3520   H         1 1      0.0000
    13 C11      0.9395  -1.1273  -1.2655   C.3       1 1      0.0000
    14 C12      2.2948  -0.4007  -1.2374   C.3       1 1      0.0000
    15 H12A     2.2537   0.4612  -1.9183   H         1 1      0.0000
    16 C13      2.8319   0.0661   0.0987   C.2       1 1      0.0000
    17 C14      2.2318   1.3059   0.6952   C.3       1 1      0.0000
    18 H14B     2.3821   1.2905   1.7804   H         1 1      0.0000
    19 H14A     1.1561   1.3517   0.5030   H         1 1      0.0000
    20 N        3.7636  -0.6179   0.6946   N.pl3     1 1      0.0000
    21 HN       4.0553  -1.4879   0.1832   H         1 1      0.0000
    22 C        4.4216  -0.2880   1.9932   C.3       1 1      0.0000
    23 H1A      5.0701  -1.1259   2.2525   H         1 1      0.0000
    24 H1C      5.0249   0.6190   1.8848   H         1 1      0.0000
    25 H1B      3.6725  -0.1485   2.7765   H         1 1      0.0000
    26 H10A    -0.2913   0.6086  -1.2204   H         1 1      0.0000
    27 H10B    -0.0478  -0.1456   0.3438   H         1 1      0.0000
    28 H9B     -1.7707  -1.3272  -1.9252   H         1 1      0.0000
    29 H5      -5.5737   1.7930   1.3622   H         1 1      0.0000
    30 H3      -4.2639  -1.6873  -0.8038   H         1 1      0.0000
    31 H12B     3.0467  -1.0756  -1.6787   H         1 1      0.0000
    32 C15      2.9207   2.5848   0.1088   C.3       1 1      0.0000
    33 H15A     3.9921   2.5978   0.3318   H         1 1      0.0000
    34 H15B     2.7846   2.6505  -0.9749   H         1 1      0.0000
    35 H15C     2.4668   3.4683   0.5674   H         1 1      0.0000
    36 O2       1.0684  -2.3327  -0.5376   O.3       1 1      0.0000
    37 H21      0.2807  -2.9113  -0.7133   H         1 1      0.0000
    38 H22      0.7194  -1.3840  -2.3006   H         1 1      0.0000
@<TRIPOS>BOND
     1     1     2   ar
     2     1     6   ar
     3     1    29    1
     4     2     3   ar
     5     2     7    1
     6     3     4   ar
     7     3    30    1
     8     4     5   ar
     9     4     8    1
    10     5     6   ar
    11     5     9    1
    12     6    10    1
    13     8    11    1
    14     8    12    1
    15     8    28    1
    16    11    13    1
    17    11    26    1
    18    11    27    1
    19    13    14    1
    20    14    15    1
    21    14    16    1
    22    14    31    1
    23    16    17    1
    24    16    20    2
    25    17    18    1
    26    17    19    1
    27    17    32    1
    28    20    21    1
    29    20    22    1
    30    22    23    1
    31    22    24    1
    32    22    25    1
    33    32    33    1
    34    32    34    1
    35    32    35    1
    36    13    36    1
    37    36    37    1
    38    13    38    1
@<TRIPOS>SUBSTRUCTURE
     1 1           1 GROUP             0 ****  ****    0  
@<TRIPOS>MOLECULE
Molecule Name_00001_00148
    38    38     1     0     0
SMALL
NO_CHARGES
****
Generated from the CSD

@<TRIPOS>ATOM
     1 C5      -4.7179   0.4085  -1.2232   C.ar      1 1      0.0000
     2 C4      -4.9019   0.6539   0.1422   C.ar      1 1      0.0000
     3 C3      -3.8385   0.4807   1.0346   C.ar      1 1      0.0000
     4 C8      -2.5815   0.0607   0.5724   C.ar      1 1      0.0000
     5 C7      -2.4078  -0.1909  -0.7970   C.ar      1 1      0.0000
     6 C6      -3.4703  -0.0189  -1.6910   C.ar      1 1      0.0000
     7 H4      -5.8719   0.9716   0.5111   H         1 1      0.0000
     8 C9      -1.4092  -0.0567   1.5326   C.3       1 1      0.0000
     9 H7      -1.4441  -0.5361  -1.1649   H         1 1      0.0000
    10 H6      -3.3274  -0.2241  -2.7470   H         1 1      0.0000
    11 C10     -0.1497  -0.5399   0.7729   C.3       1 1      0.0000
    12 H9A     -1.2003   0.9105   2.0031   H         1 1      0.0000
    13 C11      1.0665  -0.6869   1.6433   C.3       1 1      0.0000
    14 C12      2.3396  -1.2134   0.9595   C.3       1 1      0.0000
    15 H12A     2.1860  -2.2644   0.6766   H         1 1      0.0000
    16 C13      2.8714  -0.4635  -0.2432   C.2       1 1      0.0000
    17 C14      3.5686   0.8426   0.0036   C.3       1 1      0.0000
    18 H14B     4.2756   1.0313  -0.8120   H         1 1      0.0000
    19 H14A     4.1322   0.8147   0.9406   H         1 1      0.0000
    20 N        2.7345  -0.9709  -1.4327   N.pl3     1 1      0.0000
    21 HN       2.2680  -1.9119  -1.4502   H         1 1      0.0000
    22 C        3.1719  -0.3570  -2.7211   C.3       1 1      0.0000
    23 H1A      3.0071  -1.0955  -3.5068   H         1 1      0.0000
    24 H1C      2.5739   0.5359  -2.9298   H         1 1      0.0000
    25 H1B      4.2324  -0.0967  -2.6797   H         1 1      0.0000
    26 H10A    -0.3515  -1.5068   0.2843   H         1 1      0.0000
    27 H10B     0.0863   0.1588  -0.0455   H         1 1      0.0000
    28 H9B     -1.6414  -0.7628   2.3373   H         1 1      0.0000
    29 H5      -5.5430   0.5389  -1.9156   H         1 1      0.0000
    30 H3      -3.9917   0.6589   2.0967   H         1 1      0.0000
    31 H12B     3.1415  -1.2372   1.7157   H         1 1      0.0000
    32 C15      2.5321   2.0161   0.0540   C.3       1 1      0.0000
    33 H15A     2.7526   2.7751  -0.7031   H         1 1      0.0000
    34 H15B     1.5107   1.6536  -0.0963   H         1 1      0.0000
    35 H15C     2.5881   2.4907   1.0381   H         1 1      0.0000
    36 O2       1.3588   0.5743   2.2120   O.3       1 1      0.0000
    37 H21      1.4370   0.4828   3.1977   H         1 1      0.0000
    38 H22      0.8164  -1.3692   2.4544   H         1 1      0.0000
@<TRIPOS>BOND
     1     1     2   ar
     2     1     6   ar
     3     1    29    1
     4     2     3   ar
     5     2     7    1
     6     3     4   ar
     7     3    30    1
     8     4     5   ar
     9     4     8    1
    10     5     6   ar
    11     5     9    1
    12     6    10    1
    13     8    11    1
    14     8    12    1
    15     8    28    1
    16    11    13    1
    17    11    26    1
    18    11    27    1
    19    13    14    1
    20    14    15    1
    21    14    16    1
    22    14    31    1
    23    16    17    1
    24    16    20    2
    25    17    18    1
    26    17    19    1
    27    17    32    1
    28    20    21    1
    29    20    22    1
    30    22    23    1
    31    22    24    1
    32    22    25    1
    33    32    33    1
    34    32    34    1
    35    32    35    1
    36    13    36    1
    37    36    37    1
    38    13    38    1
@<TRIPOS>SUBSTRUCTURE
     1 1           1 GROUP             0 ****  ****    0  
@<TRIPOS>MOLECULE
Molecule Name_00001_00149
    38    38     1     0     0
SMALL
NO_CHARGES
****
Generated from the CSD

@<TRIPOS>ATOM
     1 C5      -4.8233   0.0546  -0.8373   C.ar      1 1      0.0000
     2 C4      -4.5038   0.7167   0.3535   C.ar      1 1      0.0000
     3 C3      -3.1749   0.7768   0.7866   C.ar      1 1      0.0000
     4 C8      -2.1525   0.1763   0.0355   C.ar      1 1      0.0000
     5 C7      -2.4827  -0.4926  -1.1531   C.ar      1 1      0.0000
     6 C6      -3.8113  -0.5543  -1.5876   C.ar      1 1      0.0000
     7 H4      -5.2876   1.1778   0.9457   H         1 1      0.0000
     8 C9      -0.7019   0.3051   0.4701   C.3       1 1      0.0000
     9 H7      -1.7022  -0.9792  -1.7338   H         1 1      0.0000
    10 H6      -4.0567  -1.0810  -2.5041   H         1 1      0.0000
    11 C10     -0.3484  -0.8199   1.4733   C.3       1 1      0.0000
    12 H9A     -0.0346   0.2413  -0.3965   H         1 1      0.0000
    13 C11      1.0542  -0.7406   2.0067   C.3       1 1      0.0000
    14 C12      2.1850  -1.0516   1.0117   C.3       1 1      0.0000
    15 H12A     2.0986  -2.0980   0.6864   H         1 1      0.0000
    16 C13      2.3231  -0.1756  -0.2152   C.2       1 1      0.0000
    17 C14      2.9081   1.1942  -0.0301   C.3       1 1      0.0000
    18 H14B     2.5324   1.6209   0.9066   H         1 1      0.0000
    19 H14A     2.6140   1.8592  -0.8471   H         1 1      0.0000
    20 N        1.9609  -0.6315  -1.3781   N.pl3     1 1      0.0000
    21 HN       1.6127  -1.6225  -1.3645   H         1 1      0.0000
    22 C        2.0026   0.1022  -2.6773   C.3       1 1      0.0000
    23 H1A      1.7370  -0.6079  -3.4616   H         1 1      0.0000
    24 H1C      1.2756   0.9205  -2.6660   H         1 1      0.0000
    25 H1B      3.0056   0.4944  -2.8626   H         1 1      0.0000
    26 H10A    -1.0496  -0.8018   2.3232   H         1 1      0.0000
    27 H10B    -0.4886  -1.8041   0.9984   H         1 1      0.0000
    28 H9B     -0.5270   1.2791   0.9401   H         1 1      0.0000
    29 H5      -5.8541   0.0042  -1.1723   H         1 1      0.0000
    30 H3      -2.9346   1.2803   1.7205   H         1 1      0.0000
    31 H12B     3.1391  -1.0031   1.5619   H         1 1      0.0000
    32 C15      4.4711   1.1173   0.0421   C.3       1 1      0.0000
    33 H15A     4.8011   0.5020   0.8849   H         1 1      0.0000
    34 H15B     4.8939   0.7086  -0.8806   H         1 1      0.0000
    35 H15C     4.8651   2.1280   0.1837   H         1 1      0.0000
    36 O2       1.2603   0.5615   2.5181   O.3       1 1      0.0000
    37 H21      0.6082   0.7384   3.2458   H         1 1      0.0000
    38 H22      1.1365  -1.4419   2.8358   H         1 1      0.0000
@<TRIPOS>BOND
     1     1     2   ar
     2     1     6   ar
     3     1    29    1
     4     2     3   ar
     5     2     7    1
     6     3     4   ar
     7     3    30    1
     8     4     5   ar
     9     4     8    1
    10     5     6   ar
    11     5     9    1
    12     6    10    1
    13     8    11    1
    14     8    12    1
    15     8    28    1
    16    11    13    1
    17    11    26    1
    18    11    27    1
    19    13    14    1
    20    14    15    1
    21    14    16    1
    22    14    31    1
    23    16    17    1
    24    16    20    2
    25    17    18    1
    26    17    19    1
    27    17    32    1
    28    20    21    1
    29    20    22    1
    30    22    23    1
    31    22    24    1
    32    22    25    1
    33    32    33    1
    34    32    34    1
    35    32    35    1
    36    13    36    1
    37    36    37    1
    38    13    38    1
@<TRIPOS>SUBSTRUCTURE
     1 1           1 GROUP             0 ****  ****    0  
@<TRIPOS>MOLECULE
Molecule Name_00001_00150
    38    38     1     0     0
SMALL
NO_CHARGES
****
Generated from the CSD

@<TRIPOS>ATOM
     1 C5      -4.6898   0.2650  -0.8046   C.ar      1 1      0.0000
     2 C4      -4.3172   0.9142   0.3779   C.ar      1 1      0.0000
     3 C3      -2.9826   0.8946   0.7969   C.ar      1 1      0.0000
     4 C8      -2.0075   0.2268   0.0398   C.ar      1 1      0.0000
     5 C7      -2.3911  -0.4283  -1.1403   C.ar      1 1      0.0000
     6 C6      -3.7255  -0.4105  -1.5607   C.ar      1 1      0.0000
     7 H4      -5.0646   1.4269   0.9747   H         1 1      0.0000
     8 C9      -0.5471   0.2684   0.4586   C.3       1 1      0.0000
     9 H7      -1.6485  -0.9663  -1.7253   H         1 1      0.0000
    10 H6      -4.0129  -0.9272  -2.4707   H         1 1      0.0000
    11 C10     -0.2532  -0.8696   1.4664   C.3       1 1      0.0000
    12 H9A      0.1057   0.1575  -0.4144   H         1 1      0.0000
    13 C11      1.1625  -0.8854   1.9701   C.3       1 1      0.0000
    14 C12      2.2436  -1.3147   0.9638   C.3       1 1      0.0000
    15 H12A     2.0372  -2.3422   0.6325   H         1 1      0.0000
    16 C13      2.4707  -0.4509  -0.2584   C.2       1 1      0.0000
    17 C14      3.2887   0.7959  -0.0872   C.3       1 1      0.0000
    18 H14B     3.8139   1.0116  -1.0243   H         1 1      0.0000
    19 H14A     4.0381   0.6676   0.6991   H         1 1      0.0000
    20 N        1.9815  -0.8157  -1.4068   N.pl3     1 1      0.0000
    21 HN       1.4705  -1.7333  -1.3871   H         1 1      0.0000
    22 C        2.0861  -0.0743  -2.6980   C.3       1 1      0.0000
    23 H1A      1.6664  -0.7134  -3.4761   H         1 1      0.0000
    24 H1C      1.5105   0.8552  -2.6411   H         1 1      0.0000
    25 H1B      3.1313   0.1456  -2.9288   H         1 1      0.0000
    26 H10A    -0.9331  -0.7935   2.3303   H         1 1      0.0000
    27 H10B    -0.4731  -1.8456   1.0052   H         1 1      0.0000
    28 H9B     -0.3072   1.2329   0.9195   H         1 1      0.0000
    29 H5      -5.7253   0.2764  -1.1286   H         1 1      0.0000
    30 H3      -2.7017   1.3886   1.7245   H         1 1      0.0000
    31 H12B     3.2011  -1.3783   1.5066   H         1 1      0.0000
    32 C15      2.3665   2.0121   0.2656   C.3       1 1      0.0000
    33 H15A     1.3261   1.8166  -0.0117   H         1 1      0.0000
    34 H15B     2.4091   2.2493   1.3329   H         1 1      0.0000
    35 H15C     2.7099   2.8861  -0.2957   H         1 1      0.0000
    36 O2       1.4812   0.4111   2.4358   O.3       1 1      0.0000
    37 H21      0.8609   0.6608   3.1699   H         1 1      0.0000
    38 H22      1.2074  -1.5658   2.8192   H         1 1      0.0000
@<TRIPOS>BOND
     1     1     2   ar
     2     1     6   ar
     3     1    29    1
     4     2     3   ar
     5     2     7    1
     6     3     4   ar
     7     3    30    1
     8     4     5   ar
     9     4     8    1
    10     5     6   ar
    11     5     9    1
    12     6    10    1
    13     8    11    1
    14     8    12    1
    15     8    28    1
    16    11    13    1
    17    11    26    1
    18    11    27    1
    19    13    14    1
    20    14    15    1
    21    14    16    1
    22    14    31    1
    23    16    17    1
    24    16    20    2
    25    17    18    1
    26    17    19    1
    27    17    32    1
    28    20    21    1
    29    20    22    1
    30    22    23    1
    31    22    24    1
    32    22    25    1
    33    32    33    1
    34    32    34    1
    35    32    35    1
    36    13    36    1
    37    36    37    1
    38    13    38    1
@<TRIPOS>SUBSTRUCTURE
     1 1           1 GROUP             0 ****  ****    0  
@<TRIPOS>MOLECULE
Molecule Name_00001_00151
    38    38     1     0     0
SMALL
NO_CHARGES
****
Generated from the CSD

@<TRIPOS>ATOM
     1 C5      -4.7576   1.2753   0.7547   C.ar      1 1      0.0000
     2 C4      -3.9271   0.5836   1.6438   C.ar      1 1      0.0000
     3 C3      -2.9200  -0.2546   1.1535   C.ar      1 1      0.0000
     4 C8      -2.7325  -0.4104  -0.2287   C.ar      1 1      0.0000
     5 C7      -3.5748   0.2805  -1.1131   C.ar      1 1      0.0000
     6 C6      -4.5831   1.1187  -0.6247   C.ar      1 1      0.0000
     7 H4      -4.0685   0.6910   2.7144   H         1 1      0.0000
     8 C9      -1.5922  -1.2641  -0.7586   C.3       1 1      0.0000
     9 H7      -3.4527   0.1526  -2.1864   H         1 1      0.0000
    10 H6      -5.2342   1.6421  -1.3174   H         1 1      0.0000
    11 C10     -0.2337  -0.6533  -0.3363   C.3       1 1      0.0000
    12 H9A     -1.6664  -2.2864  -0.3716   H         1 1      0.0000
    13 C11      0.9587  -1.4317  -0.8164   C.3       1 1      0.0000
    14 C12      2.2161  -0.6162  -1.1621   C.3       1 1      0.0000
    15 H12A     1.9752   0.0888  -1.9702   H         1 1      0.0000
    16 C13      2.9075   0.1434  -0.0502   C.2       1 1      0.0000
    17 C14      4.0400   1.0530  -0.4284   C.3       1 1      0.0000
    18 H14B     4.6312   0.5794  -1.2201   H         1 1      0.0000
    19 H14A     4.6996   1.2329   0.4253   H         1 1      0.0000
    20 N        2.4959   0.0097   1.1761   N.pl3     1 1      0.0000
    21 HN       1.6650  -0.6235   1.2865   H         1 1      0.0000
    22 C        3.0766   0.6582   2.3887   C.3       1 1      0.0000
    23 H1A      2.4239   0.4207   3.2298   H         1 1      0.0000
    24 H1C      4.0776   0.2589   2.5809   H         1 1      0.0000
    25 H1B      3.1243   1.7419   2.2566   H         1 1      0.0000
    26 H10A    -0.1524   0.3805  -0.7094   H         1 1      0.0000
    27 H10B    -0.1827  -0.5738   0.7613   H         1 1      0.0000
    28 H9B     -1.6373  -1.3294  -1.8513   H         1 1      0.0000
    29 H5      -5.5414   1.9227   1.1340   H         1 1      0.0000
    30 H3      -2.2872  -0.8009   1.8495   H         1 1      0.0000
    31 H12B     2.9549  -1.3078  -1.5995   H         1 1      0.0000
    32 C15      3.4905   2.4207  -0.9592   C.3       1 1      0.0000
    33 H15A     2.8688   2.2817  -1.8492   H         1 1      0.0000
    34 H15B     2.9028   2.9386  -0.1952   H         1 1      0.0000
    35 H15C     4.3380   3.0564  -1.2319   H         1 1      0.0000
    36 O2       1.3025  -2.3741   0.1800   O.3       1 1      0.0000
    37 H21      0.5360  -2.9860   0.3355   H         1 1      0.0000
    38 H22      0.6616  -1.9817  -1.7082   H         1 1      0.0000
@<TRIPOS>BOND
     1     1     2   ar
     2     1     6   ar
     3     1    29    1
     4     2     3   ar
     5     2     7    1
     6     3     4   ar
     7     3    30    1
     8     4     5   ar
     9     4     8    1
    10     5     6   ar
    11     5     9    1
    12     6    10    1
    13     8    11    1
    14     8    12    1
    15     8    28    1
    16    11    13    1
    17    11    26    1
    18    11    27    1
    19    13    14    1
    20    14    15    1
    21    14    16    1
    22    14    31    1
    23    16    17    1
    24    16    20    2
    25    17    18    1
    26    17    19    1
    27    17    32    1
    28    20    21    1
    29    20    22    1
    30    22    23    1
    31    22    24    1
    32    22    25    1
    33    32    33    1
    34    32    34    1
    35    32    35    1
    36    13    36    1
    37    36    37    1
    38    13    38    1
@<TRIPOS>SUBSTRUCTURE
     1 1           1 GROUP             0 ****  ****    0  
@<TRIPOS>MOLECULE
Molecule Name_00001_00152
    38    38     1     0     0
SMALL
NO_CHARGES
****
Generated from the CSD

@<TRIPOS>ATOM
     1 C5      -4.9642   1.1192   0.6411   C.ar      1 1      0.0000
     2 C4      -4.0813   0.5812   1.5843   C.ar      1 1      0.0000
     3 C3      -3.0151  -0.2226   1.1669   C.ar      1 1      0.0000
     4 C8      -2.8203  -0.4972  -0.1957   C.ar      1 1      0.0000
     5 C7      -3.7150   0.0394  -1.1340   C.ar      1 1      0.0000
     6 C6      -4.7824   0.8431  -0.7185   C.ar      1 1      0.0000
     7 H4      -4.2273   0.7811   2.6409   H         1 1      0.0000
     8 C9      -1.6202  -1.3103  -0.6523   C.3       1 1      0.0000
     9 H7      -3.5867  -0.1824  -2.1911   H         1 1      0.0000
    10 H6      -5.4732   1.2465  -1.4518   H         1 1      0.0000
    11 C10     -0.3106  -0.5613  -0.3048   C.3       1 1      0.0000
    12 H9A     -1.6157  -2.2930  -0.1677   H         1 1      0.0000
    13 C11      0.9359  -1.2909  -0.7197   C.3       1 1      0.0000
    14 C12      2.1270  -0.4209  -1.1553   C.3       1 1      0.0000
    15 H12A     1.8311   0.1824  -2.0252   H         1 1      0.0000
    16 C13      2.7622   0.4928  -0.1290   C.2       1 1      0.0000
    17 C14      3.8215   1.4438  -0.6048   C.3       1 1      0.0000
    18 H14B     3.8926   2.2819   0.0975   H         1 1      0.0000
    19 H14A     3.5712   1.8477  -1.5899   H         1 1      0.0000
    20 N        2.3654   0.4482   1.1087   N.pl3     1 1      0.0000
    21 HN       1.5851  -0.2319   1.2881   H         1 1      0.0000
    22 C        2.8989   1.2530   2.2470   C.3       1 1      0.0000
    23 H1A      2.2684   1.0499   3.1137   H         1 1      0.0000
    24 H1C      3.9278   0.9504   2.4666   H         1 1      0.0000
    25 H1B      2.8640   2.3192   2.0105   H         1 1      0.0000
    26 H10A    -0.3088   0.4346  -0.7767   H         1 1      0.0000
    27 H10B    -0.2626  -0.3721   0.7795   H         1 1      0.0000
    28 H9B     -1.6633  -1.4846  -1.7331   H         1 1      0.0000
    29 H5      -5.7937   1.7397   0.9640   H         1 1      0.0000
    30 H3      -2.3407  -0.6498   1.9059   H         1 1      0.0000
    31 H12B     2.9148  -1.0942  -1.5314   H         1 1      0.0000
    32 C15      5.2118   0.7251  -0.6744   C.3       1 1      0.0000
    33 H15A     5.5189   0.3558   0.3090   H         1 1      0.0000
    34 H15B     5.1931  -0.1137  -1.3767   H         1 1      0.0000
    35 H15C     5.9611   1.4448  -1.0169   H         1 1      0.0000
    36 O2       1.3529  -2.1038   0.3595   O.3       1 1      0.0000
    37 H21      0.6353  -2.7535   0.5811   H         1 1      0.0000
    38 H22      0.6787  -1.9456  -1.5511   H         1 1      0.0000
@<TRIPOS>BOND
     1     1     2   ar
     2     1     6   ar
     3     1    29    1
     4     2     3   ar
     5     2     7    1
     6     3     4   ar
     7     3    30    1
     8     4     5   ar
     9     4     8    1
    10     5     6   ar
    11     5     9    1
    12     6    10    1
    13     8    11    1
    14     8    12    1
    15     8    28    1
    16    11    13    1
    17    11    26    1
    18    11    27    1
    19    13    14    1
    20    14    15    1
    21    14    16    1
    22    14    31    1
    23    16    17    1
    24    16    20    2
    25    17    18    1
    26    17    19    1
    27    17    32    1
    28    20    21    1
    29    20    22    1
    30    22    23    1
    31    22    24    1
    32    22    25    1
    33    32    33    1
    34    32    34    1
    35    32    35    1
    36    13    36    1
    37    36    37    1
    38    13    38    1
@<TRIPOS>SUBSTRUCTURE
     1 1           1 GROUP             0 ****  ****    0  
@<TRIPOS>MOLECULE
Molecule Name_00001_00153
    38    38     1     0     0
SMALL
NO_CHARGES
****
Generated from the CSD

@<TRIPOS>ATOM
     1 C5      -5.7085  -0.2806  -0.3197   C.ar      1 1      0.0000
     2 C4      -5.2336  -0.6144   0.9538   C.ar      1 1      0.0000
     3 C3      -3.9098  -0.3290   1.3046   C.ar      1 1      0.0000
     4 C8      -3.0474   0.2919   0.3877   C.ar      1 1      0.0000
     5 C7      -3.5293   0.6158  -0.8897   C.ar      1 1      0.0000
     6 C6      -4.8528   0.3306  -1.2428   C.ar      1 1      0.0000
     7 H4      -5.8899  -1.1017   1.6676   H         1 1      0.0000
     8 C9      -1.6320   0.6664   0.7955   C.3       1 1      0.0000
     9 H7      -2.8652   1.0791  -1.6161   H         1 1      0.0000
    10 H6      -5.2130   0.5780  -2.2361   H         1 1      0.0000
    11 C10     -0.6093  -0.1221  -0.0586   C.3       1 1      0.0000
    12 H9A     -1.4654   1.7409   0.6607   H         1 1      0.0000
    13 C11      0.8241   0.1828   0.2738   C.3       1 1      0.0000
    14 C12      1.8911  -0.6061  -0.5038   C.3       1 1      0.0000
    15 H12A     1.8504  -0.3159  -1.5632   H         1 1      0.0000
    16 C13      3.3286  -0.5228  -0.0364   C.2       1 1      0.0000
    17 C14      3.7906   0.7721   0.5656   C.3       1 1      0.0000
    18 H14B     4.6790   0.5854   1.1792   H         1 1      0.0000
    19 H14A     3.0184   1.2020   1.2099   H         1 1      0.0000
    20 N        4.1038  -1.5614  -0.1444   N.pl3     1 1      0.0000
    21 HN       3.6332  -2.4126  -0.5412   H         1 1      0.0000
    22 C        5.5442  -1.6441   0.2382   C.3       1 1      0.0000
    23 H1A      5.8534  -2.6837   0.1221   H         1 1      0.0000
    24 H1C      6.1422  -1.0105  -0.4246   H         1 1      0.0000
    25 H1B      5.6819  -1.3349   1.2772   H         1 1      0.0000
    26 H10A    -0.7750  -1.2053   0.0589   H         1 1      0.0000
    27 H10B    -0.7739   0.0855  -1.1280   H         1 1      0.0000
    28 H9B     -1.4669   0.4455   1.8558   H         1 1      0.0000
    29 H5      -6.7340  -0.5049  -0.5941   H         1 1      0.0000
    30 H3      -3.5423  -0.6041   2.2909   H         1 1      0.0000
    31 H12B     1.5996  -1.6693  -0.4893   H         1 1      0.0000
    32 C15      4.1611   1.7979  -0.5590   C.3       1 1      0.0000
    33 H15A     4.9716   1.4210  -1.1906   H         1 1      0.0000
    34 H15B     3.2978   2.0266  -1.1912   H         1 1      0.0000
    35 H15C     4.4995   2.7259  -0.0887   H         1 1      0.0000
    36 O2       1.0457   1.5619   0.0541   O.3       1 1      0.0000
    37 H21      0.5315   2.0899   0.7195   H         1 1      0.0000
    38 H22      0.9702  -0.0142   1.3348   H         1 1      0.0000
@<TRIPOS>BOND
     1     1     2   ar
     2     1     6   ar
     3     1    29    1
     4     2     3   ar
     5     2     7    1
     6     3     4   ar
     7     3    30    1
     8     4     5   ar
     9     4     8    1
    10     5     6   ar
    11     5     9    1
    12     6    10    1
    13     8    11    1
    14     8    12    1
    15     8    28    1
    16    11    13    1
    17    11    26    1
    18    11    27    1
    19    13    14    1
    20    14    15    1
    21    14    16    1
    22    14    31    1
    23    16    17    1
    24    16    20    2
    25    17    18    1
    26    17    19    1
    27    17    32    1
    28    20    21    1
    29    20    22    1
    30    22    23    1
    31    22    24    1
    32    22    25    1
    33    32    33    1
    34    32    34    1
    35    32    35    1
    36    13    36    1
    37    36    37    1
    38    13    38    1
@<TRIPOS>SUBSTRUCTURE
     1 1           1 GROUP             0 ****  ****    0  
@<TRIPOS>MOLECULE
Molecule Name_00001_00154
    38    38     1     0     0
SMALL
NO_CHARGES
****
Generated from the CSD

@<TRIPOS>ATOM
     1 C5      -5.6342   0.2746  -0.0911   C.ar      1 1      0.0000
     2 C4      -5.1565  -0.7979  -0.8527   C.ar      1 1      0.0000
     3 C3      -3.7859  -1.0755  -0.8890   C.ar      1 1      0.0000
     4 C8      -2.8791  -0.2852  -0.1657   C.ar      1 1      0.0000
     5 C7      -3.3657   0.7932   0.5889   C.ar      1 1      0.0000
     6 C6      -4.7361   1.0729   0.6259   C.ar      1 1      0.0000
     7 H4      -5.8483  -1.4105  -1.4218   H         1 1      0.0000
     8 C9      -1.3996  -0.6326  -0.1486   C.3       1 1      0.0000
     9 H7      -2.6712   1.4253   1.1378   H         1 1      0.0000
    10 H6      -5.1010   1.9142   1.2063   H         1 1      0.0000
    11 C10     -0.6252   0.3935   0.7140   C.3       1 1      0.0000
    12 H9A     -1.2463  -1.6382   0.2586   H         1 1      0.0000
    13 C11      0.8525   0.1313   0.7909   C.3       1 1      0.0000
    14 C12      1.6554   0.3462  -0.5032   C.3       1 1      0.0000
    15 H12A     1.5700   1.3989  -0.8075   H         1 1      0.0000
    16 C13      3.1189  -0.0409  -0.5131   C.2       1 1      0.0000
    17 C14      4.1307   1.0598  -0.3801   C.3       1 1      0.0000
    18 H14B     3.7892   1.9314  -0.9494   H         1 1      0.0000
    19 H14A     5.1000   0.7512  -0.7821   H         1 1      0.0000
    20 N        3.4548  -1.2934  -0.6105   N.pl3     1 1      0.0000
    21 HN       2.6416  -1.9572  -0.6496   H         1 1      0.0000
    22 C        4.8409  -1.8446  -0.6629   C.3       1 1      0.0000
    23 H1A      4.7610  -2.9321  -0.6298   H         1 1      0.0000
    24 H1C      5.3260  -1.5438  -1.5970   H         1 1      0.0000
    25 H1B      5.4241  -1.4941   0.1921   H         1 1      0.0000
    26 H10A    -0.7819   1.4112   0.3214   H         1 1      0.0000
    27 H10B    -1.0332   0.4078   1.7372   H         1 1      0.0000
    28 H9B     -0.9935  -0.6321  -1.1661   H         1 1      0.0000
    29 H5      -6.6967   0.4931  -0.0652   H         1 1      0.0000
    30 H3      -3.4191  -1.9015  -1.4945   H         1 1      0.0000
    31 H12B     1.1574  -0.2227  -1.3057   H         1 1      0.0000
    32 C15      4.2973   1.4724   1.1220   C.3       1 1      0.0000
    33 H15A     3.4823   2.1259   1.4483   H         1 1      0.0000
    34 H15B     4.3303   0.5955   1.7757   H         1 1      0.0000
    35 H15C     5.2378   2.0201   1.2323   H         1 1      0.0000
    36 O2       1.3984   0.9650   1.7940   O.3       1 1      0.0000
    37 H21      0.9696   0.7585   2.6655   H         1 1      0.0000
    38 H22      0.9925  -0.9026   1.1031   H         1 1      0.0000
@<TRIPOS>BOND
     1     1     2   ar
     2     1     6   ar
     3     1    29    1
     4     2     3   ar
     5     2     7    1
     6     3     4   ar
     7     3    30    1
     8     4     5   ar
     9     4     8    1
    10     5     6   ar
    11     5     9    1
    12     6    10    1
    13     8    11    1
    14     8    12    1
    15     8    28    1
    16    11    13    1
    17    11    26    1
    18    11    27    1
    19    13    14    1
    20    14    15    1
    21    14    16    1
    22    14    31    1
    23    16    17    1
    24    16    20    2
    25    17    18    1
    26    17    19    1
    27    17    32    1
    28    20    21    1
    29    20    22    1
    30    22    23    1
    31    22    24    1
    32    22    25    1
    33    32    33    1
    34    32    34    1
    35    32    35    1
    36    13    36    1
    37    36    37    1
    38    13    38    1
@<TRIPOS>SUBSTRUCTURE
     1 1           1 GROUP             0 ****  ****    0  
@<TRIPOS>MOLECULE
Molecule Name_00001_00155
    38    38     1     0     0
SMALL
NO_CHARGES
****
Generated from the CSD

@<TRIPOS>ATOM
     1 C5      -3.1959   2.1298   0.3011   C.ar      1 1      0.0000
     2 C4      -2.6010   1.8482  -0.9340   C.ar      1 1      0.0000
     3 C3      -2.1802   0.5469  -1.2282   C.ar      1 1      0.0000
     4 C8      -2.3490  -0.4855  -0.2924   C.ar      1 1      0.0000
     5 C7      -2.9389  -0.1928   0.9466   C.ar      1 1      0.0000
     6 C6      -3.3598   1.1082   1.2431   C.ar      1 1      0.0000
     7 H4      -2.4589   2.6407  -1.6616   H         1 1      0.0000
     8 C9      -1.9575  -1.9119  -0.6421   C.3       1 1      0.0000
     9 H7      -3.0570  -0.9799   1.6881   H         1 1      0.0000
    10 H6      -3.8076   1.3254   2.2075   H         1 1      0.0000
    11 C10     -0.8663  -2.4153   0.3339   C.3       1 1      0.0000
    12 H9A     -2.8288  -2.5738  -0.5850   H         1 1      0.0000
    13 C11      0.4925  -1.8240   0.0844   C.3       1 1      0.0000
    14 C12      0.7007  -0.3687   0.5365   C.3       1 1      0.0000
    15 H12A     0.5236  -0.3009   1.6192   H         1 1      0.0000
    16 C13      2.0223   0.2991   0.2217   C.2       1 1      0.0000
    17 C14      2.2701   0.7168  -1.1985   C.3       1 1      0.0000
    18 H14B     1.8665  -0.0469  -1.8725   H         1 1      0.0000
    19 H14A     3.3413   0.8121  -1.3973   H         1 1      0.0000
    20 N        2.8817   0.5109   1.1745   N.pl3     1 1      0.0000
    21 HN       2.5553   0.2085   2.1261   H         1 1      0.0000
    22 C        4.2339   1.1277   1.0364   C.3       1 1      0.0000
    23 H1A      4.6376   1.2572   2.0415   H         1 1      0.0000
    24 H1C      4.8892   0.4634   0.4640   H         1 1      0.0000
    25 H1B      4.1618   2.0998   0.5426   H         1 1      0.0000
    26 H10A    -1.1596  -2.1966   1.3734   H         1 1      0.0000
    27 H10B    -0.7879  -3.5127   0.2759   H         1 1      0.0000
    28 H9B     -1.5794  -1.9653  -1.6689   H         1 1      0.0000
    29 H5      -3.5192   3.1395   0.5318   H         1 1      0.0000
    30 H3      -1.7053   0.3372  -2.1841   H         1 1      0.0000
    31 H12B    -0.0956   0.2419   0.0798   H         1 1      0.0000
    32 C15      1.5610   2.0809  -1.5000   C.3       1 1      0.0000
    33 H15A     0.4778   2.0054  -1.3635   H         1 1      0.0000
    34 H15B     1.9432   2.8802  -0.8578   H         1 1      0.0000
    35 H15C     1.7547   2.3533  -2.5417   H         1 1      0.0000
    36 O2       1.4531  -2.6316   0.7359   O.3       1 1      0.0000
    37 H21      1.4110  -3.5546   0.3722   H         1 1      0.0000
    38 H22      0.6864  -1.8721  -0.9862   H         1 1      0.0000
@<TRIPOS>BOND
     1     1     2   ar
     2     1     6   ar
     3     1    29    1
     4     2     3   ar
     5     2     7    1
     6     3     4   ar
     7     3    30    1
     8     4     5   ar
     9     4     8    1
    10     5     6   ar
    11     5     9    1
    12     6    10    1
    13     8    11    1
    14     8    12    1
    15     8    28    1
    16    11    13    1
    17    11    26    1
    18    11    27    1
    19    13    14    1
    20    14    15    1
    21    14    16    1
    22    14    31    1
    23    16    17    1
    24    16    20    2
    25    17    18    1
    26    17    19    1
    27    17    32    1
    28    20    21    1
    29    20    22    1
    30    22    23    1
    31    22    24    1
    32    22    25    1
    33    32    33    1
    34    32    34    1
    35    32    35    1
    36    13    36    1
    37    36    37    1
    38    13    38    1
@<TRIPOS>SUBSTRUCTURE
     1 1           1 GROUP             0 ****  ****    0  
@<TRIPOS>MOLECULE
Molecule Name_00001_00156
    38    38     1     0     0
SMALL
NO_CHARGES
****
Generated from the CSD

@<TRIPOS>ATOM
     1 C5      -3.5003   1.9345   0.4151   C.ar      1 1      0.0000
     2 C4      -2.8488   1.8202  -0.8182   C.ar      1 1      0.0000
     3 C3      -2.2860   0.5984  -1.2025   C.ar      1 1      0.0000
     4 C8      -2.3681  -0.5207  -0.3593   C.ar      1 1      0.0000
     5 C7      -3.0160  -0.3952   0.8790   C.ar      1 1      0.0000
     6 C6      -3.5788   0.8261   1.2654   C.ar      1 1      0.0000
     7 H4      -2.7731   2.6813  -1.4744   H         1 1      0.0000
     8 C9      -1.8199  -1.8647  -0.8099   C.3       1 1      0.0000
     9 H7      -3.0687  -1.2496   1.5501   H         1 1      0.0000
    10 H6      -4.0706   0.9144   2.2288   H         1 1      0.0000
    11 C10     -0.7062  -2.3331   0.1581   C.3       1 1      0.0000
    12 H9A     -2.6177  -2.6153  -0.8355   H         1 1      0.0000
    13 C11      0.5885  -1.5862   0.0027   C.3       1 1      0.0000
    14 C12      0.6308  -0.1603   0.5775   C.3       1 1      0.0000
    15 H12A     0.4208  -0.2020   1.6556   H         1 1      0.0000
    16 C13      1.8821   0.6640   0.3621   C.2       1 1      0.0000
    17 C14      2.1198   1.2226  -1.0107   C.3       1 1      0.0000
    18 H14B     2.7859   2.0892  -0.9347   H         1 1      0.0000
    19 H14A     1.1824   1.5548  -1.4658   H         1 1      0.0000
    20 N        2.6905   0.8826   1.3570   N.pl3     1 1      0.0000
    21 HN       2.3743   0.4696   2.2697   H         1 1      0.0000
    22 C        3.9732   1.6447   1.3145   C.3       1 1      0.0000
    23 H1A      4.3359   1.7304   2.3398   H         1 1      0.0000
    24 H1C      4.7089   1.1017   0.7126   H         1 1      0.0000
    25 H1B      3.8115   2.6422   0.8987   H         1 1      0.0000
    26 H10A    -1.0466  -2.2338   1.2015   H         1 1      0.0000
    27 H10B    -0.5112  -3.4079   0.0143   H         1 1      0.0000
    28 H9B     -1.4130  -1.7927  -1.8245   H         1 1      0.0000
    29 H5      -3.9339   2.8826   0.7157   H         1 1      0.0000
    30 H3      -1.7682   0.5197  -2.1559   H         1 1      0.0000
    31 H12B    -0.2137   0.4012   0.1452   H         1 1      0.0000
    32 C15      2.7933   0.1481  -1.9304   C.3       1 1      0.0000
    33 H15A     3.5962  -0.3787  -1.4054   H         1 1      0.0000
    34 H15B     2.0642  -0.5854  -2.2877   H         1 1      0.0000
    35 H15C     3.2280   0.6529  -2.7982   H         1 1      0.0000
    36 O2       1.6124  -2.3423   0.6185   O.3       1 1      0.0000
    37 H21      1.6768  -3.2311   0.1804   H         1 1      0.0000
    38 H22      0.8128  -1.5243  -1.0612   H         1 1      0.0000
@<TRIPOS>BOND
     1     1     2   ar
     2     1     6   ar
     3     1    29    1
     4     2     3   ar
     5     2     7    1
     6     3     4   ar
     7     3    30    1
     8     4     5   ar
     9     4     8    1
    10     5     6   ar
    11     5     9    1
    12     6    10    1
    13     8    11    1
    14     8    12    1
    15     8    28    1
    16    11    13    1
    17    11    26    1
    18    11    27    1
    19    13    14    1
    20    14    15    1
    21    14    16    1
    22    14    31    1
    23    16    17    1
    24    16    20    2
    25    17    18    1
    26    17    19    1
    27    17    32    1
    28    20    21    1
    29    20    22    1
    30    22    23    1
    31    22    24    1
    32    22    25    1
    33    32    33    1
    34    32    34    1
    35    32    35    1
    36    13    36    1
    37    36    37    1
    38    13    38    1
@<TRIPOS>SUBSTRUCTURE
     1 1           1 GROUP             0 ****  ****    0  
@<TRIPOS>MOLECULE
Molecule Name_00001_00157
    38    38     1     0     0
SMALL
NO_CHARGES
****
Generated from the CSD

@<TRIPOS>ATOM
     1 C5      -3.3954   1.1295  -1.5317   C.ar      1 1      0.0000
     2 C4      -2.8495  -0.1160  -1.8622   C.ar      1 1      0.0000
     3 C3      -2.3461  -0.9490  -0.8573   C.ar      1 1      0.0000
     4 C8      -2.3825  -0.5466   0.4868   C.ar      1 1      0.0000
     5 C7      -2.9241   0.7072   0.8086   C.ar      1 1      0.0000
     6 C6      -3.4275   1.5421  -0.1950   C.ar      1 1      0.0000
     7 H4      -2.8095  -0.4335  -2.8992   H         1 1      0.0000
     8 C9      -1.9017  -1.4830   1.5831   C.3       1 1      0.0000
     9 H7      -2.9399   1.0392   1.8444   H         1 1      0.0000
    10 H6      -3.8369   2.5132   0.0640   H         1 1      0.0000
    11 C10     -0.7214  -0.8379   2.3497   C.3       1 1      0.0000
    12 H9A     -2.7142  -1.7013   2.2849   H         1 1      0.0000
    13 C11      0.5711  -0.8320   1.5832   C.3       1 1      0.0000
    14 C12      0.6924   0.2020   0.4512   C.3       1 1      0.0000
    15 H12A     0.5972   1.2114   0.8759   H         1 1      0.0000
    16 C13      1.9243   0.1635  -0.4278   C.2       1 1      0.0000
    17 C14      3.2140   0.6582   0.1595   C.3       1 1      0.0000
    18 H14B     4.0516   0.2172  -0.3923   H         1 1      0.0000
    19 H14A     3.3058   0.3617   1.2082   H         1 1      0.0000
    20 N        1.8406  -0.3096  -1.6363   N.pl3     1 1      0.0000
    21 HN       0.8862  -0.6627  -1.8971   H         1 1      0.0000
    22 C        2.9421  -0.3952  -2.6399   C.3       1 1      0.0000
    23 H1A      2.5571  -0.9434  -3.5009   H         1 1      0.0000
    24 H1C      3.2396   0.6108  -2.9527   H         1 1      0.0000
    25 H1B      3.8001  -0.9267  -2.2212   H         1 1      0.0000
    26 H10A    -0.9720   0.1994   2.6248   H         1 1      0.0000
    27 H10B    -0.5614  -1.3640   3.3044   H         1 1      0.0000
    28 H9B     -1.5788  -2.4392   1.1569   H         1 1      0.0000
    29 H5      -3.7827   1.7780  -2.3106   H         1 1      0.0000
    30 H3      -1.9097  -1.9097  -1.1220   H         1 1      0.0000
    31 H12B    -0.1860   0.0860  -0.2050   H         1 1      0.0000
    32 C15      3.3033   2.2183   0.0494   C.3       1 1      0.0000
    33 H15A     3.2697   2.5466  -0.9941   H         1 1      0.0000
    34 H15B     2.4917   2.7046   0.5990   H         1 1      0.0000
    35 H15C     4.2549   2.5456   0.4787   H         1 1      0.0000
    36 O2       1.6271  -0.6130   2.4977   O.3       1 1      0.0000
    37 H21      1.6352  -1.3398   3.1743   H         1 1      0.0000
    38 H22      0.7059  -1.8211   1.1480   H         1 1      0.0000
@<TRIPOS>BOND
     1     1     2   ar
     2     1     6   ar
     3     1    29    1
     4     2     3   ar
     5     2     7    1
     6     3     4   ar
     7     3    30    1
     8     4     5   ar
     9     4     8    1
    10     5     6   ar
    11     5     9    1
    12     6    10    1
    13     8    11    1
    14     8    12    1
    15     8    28    1
    16    11    13    1
    17    11    26    1
    18    11    27    1
    19    13    14    1
    20    14    15    1
    21    14    16    1
    22    14    31    1
    23    16    17    1
    24    16    20    2
    25    17    18    1
    26    17    19    1
    27    17    32    1
    28    20    21    1
    29    20    22    1
    30    22    23    1
    31    22    24    1
    32    22    25    1
    33    32    33    1
    34    32    34    1
    35    32    35    1
    36    13    36    1
    37    36    37    1
    38    13    38    1
@<TRIPOS>SUBSTRUCTURE
     1 1           1 GROUP             0 ****  ****    0  
@<TRIPOS>MOLECULE
Molecule Name_00001_00158
    38    38     1     0     0
SMALL
NO_CHARGES
****
Generated from the CSD

@<TRIPOS>ATOM
     1 C5      -4.1696   0.7297   1.4333   C.ar      1 1      0.0000
     2 C4      -4.7112   0.1572   0.2768   C.ar      1 1      0.0000
     3 C3      -3.8818  -0.5191  -0.6243   C.ar      1 1      0.0000
     4 C8      -2.5042  -0.6301  -0.3797   C.ar      1 1      0.0000
     5 C7      -1.9682  -0.0461   0.7782   C.ar      1 1      0.0000
     6 C6      -2.7959   0.6312   1.6803   C.ar      1 1      0.0000
     7 H4      -5.7738   0.2438   0.0743   H         1 1      0.0000
     8 C9      -1.6176  -1.4269  -1.3225   C.3       1 1      0.0000
     9 H7      -0.8991  -0.1079   0.9691   H         1 1      0.0000
    10 H6      -2.3698   1.0861   2.5687   H         1 1      0.0000
    11 C10     -0.1323  -1.2616  -0.9182   C.3       1 1      0.0000
    12 H9A     -1.8851  -2.4891  -1.2948   H         1 1      0.0000
    13 C11      0.4287   0.1021  -1.2079   C.3       1 1      0.0000
    14 C12      1.9580   0.2455  -1.1286   C.3       1 1      0.0000
    15 H12A     2.2540   1.1941  -1.5985   H         1 1      0.0000
    16 C13      2.6183   0.1545   0.2305   C.2       1 1      0.0000
    17 C14      4.1142   0.2647   0.2863   C.3       1 1      0.0000
    18 H14B     4.5449  -0.2660  -0.5701   H         1 1      0.0000
    19 H14A     4.5066  -0.1915   1.1996   H         1 1      0.0000
    20 N        1.8863   0.0102   1.2956   N.pl3     1 1      0.0000
    21 HN       0.8523  -0.0052   1.1106   H         1 1      0.0000
    22 C        2.3711  -0.1235   2.7010   C.3       1 1      0.0000
    23 H1A      1.4949  -0.1132   3.3507   H         1 1      0.0000
    24 H1C      2.9029  -1.0727   2.8225   H         1 1      0.0000
    25 H1B      3.0285   0.7102   2.9593   H         1 1      0.0000
    26 H10A    -0.0080  -1.4721   0.1564   H         1 1      0.0000
    27 H10B     0.4841  -2.0127  -1.4375   H         1 1      0.0000
    28 H9B     -1.7530  -1.0876  -2.3553   H         1 1      0.0000
    29 H5      -4.8114   1.2576   2.1310   H         1 1      0.0000
    30 H3      -4.3063  -0.9494  -1.5288   H         1 1      0.0000
    31 H12B     2.4020  -0.5375  -1.7652   H         1 1      0.0000
    32 C15      4.5558   1.7664   0.2228   C.3       1 1      0.0000
    33 H15A     4.2255   2.2397  -0.7070   H         1 1      0.0000
    34 H15B     4.1592   2.3354   1.0691   H         1 1      0.0000
    35 H15C     5.6483   1.8118   0.2585   H         1 1      0.0000
    36 O2       0.0149   0.4846  -2.5048   O.3       1 1      0.0000
    37 H21     -0.9299   0.7885  -2.4746   H         1 1      0.0000
    38 H22     -0.0096   0.8015  -0.4976   H         1 1      0.0000
@<TRIPOS>BOND
     1     1     2   ar
     2     1     6   ar
     3     1    29    1
     4     2     3   ar
     5     2     7    1
     6     3     4   ar
     7     3    30    1
     8     4     5   ar
     9     4     8    1
    10     5     6   ar
    11     5     9    1
    12     6    10    1
    13     8    11    1
    14     8    12    1
    15     8    28    1
    16    11    13    1
    17    11    26    1
    18    11    27    1
    19    13    14    1
    20    14    15    1
    21    14    16    1
    22    14    31    1
    23    16    17    1
    24    16    20    2
    25    17    18    1
    26    17    19    1
    27    17    32    1
    28    20    21    1
    29    20    22    1
    30    22    23    1
    31    22    24    1
    32    22    25    1
    33    32    33    1
    34    32    34    1
    35    32    35    1
    36    13    36    1
    37    36    37    1
    38    13    38    1
@<TRIPOS>SUBSTRUCTURE
     1 1           1 GROUP             0 ****  ****    0  
@<TRIPOS>MOLECULE
Molecule Name_00001_00159
    38    38     1     0     0
SMALL
NO_CHARGES
****
Generated from the CSD

@<TRIPOS>ATOM
     1 C5      -4.2307  -0.8964  -1.1652   C.ar      1 1      0.0000
     2 C4      -4.7267  -0.3329   0.0159   C.ar      1 1      0.0000
     3 C3      -3.8664   0.3539   0.8792   C.ar      1 1      0.0000
     4 C8      -2.5031   0.4845   0.5720   C.ar      1 1      0.0000
     5 C7      -2.0126  -0.0906  -0.6103   C.ar      1 1      0.0000
     6 C6      -2.8713  -0.7785  -1.4747   C.ar      1 1      0.0000
     7 H4      -5.7776  -0.4346   0.2667   H         1 1      0.0000
     8 C9      -1.5854   1.2926   1.4746   C.3       1 1      0.0000
     9 H7      -0.9543  -0.0137  -0.8498   H         1 1      0.0000
    10 H6      -2.4800  -1.2264  -2.3825   H         1 1      0.0000
    11 C10     -0.1180   1.1485   1.0024   C.3       1 1      0.0000
    12 H9A     -1.8686   2.3509   1.4611   H         1 1      0.0000
    13 C11      0.4746  -0.2075   1.2637   C.3       1 1      0.0000
    14 C12      2.0005  -0.3294   1.1142   C.3       1 1      0.0000
    15 H12A     2.3309  -1.2743   1.5684   H         1 1      0.0000
    16 C13      2.5965  -0.2277  -0.2736   C.2       1 1      0.0000
    17 C14      4.0897  -0.3168  -0.3980   C.3       1 1      0.0000
    18 H14B     4.3464  -0.6348  -1.4146   H         1 1      0.0000
    19 H14A     4.4975  -1.0532   0.3004   H         1 1      0.0000
    20 N        1.8145  -0.0924  -1.3038   N.pl3     1 1      0.0000
    21 HN       0.7900  -0.0917  -1.0716   H         1 1      0.0000
    22 C        2.2325   0.0496  -2.7297   C.3       1 1      0.0000
    23 H1A      1.3277   0.0278  -3.3386   H         1 1      0.0000
    24 H1C      2.7449   1.0063  -2.8737   H         1 1      0.0000
    25 H1B      2.8889  -0.7745  -3.0193   H         1 1      0.0000
    26 H10A    -0.0460   1.3619  -0.0763   H         1 1      0.0000
    27 H10B     0.5110   1.9076   1.4942   H         1 1      0.0000
    28 H9B     -1.6686   0.9503   2.5119   H         1 1      0.0000
    29 H5      -4.8964  -1.4325  -1.8337   H         1 1      0.0000
    30 H3      -4.2549   0.7772   1.8030   H         1 1      0.0000
    31 H12B     2.4623   0.4590   1.7312   H         1 1      0.0000
    32 C15      4.7465   1.0791  -0.1253   C.3       1 1      0.0000
    33 H15A     4.4007   1.8290  -0.8434   H         1 1      0.0000
    34 H15B     4.5281   1.4323   0.8871   H         1 1      0.0000
    35 H15C     5.8311   0.9820  -0.2301   H         1 1      0.0000
    36 O2       0.1261  -0.5972   2.5775   O.3       1 1      0.0000
    37 H21     -0.8149  -0.9143   2.5901   H         1 1      0.0000
    38 H22      0.0139  -0.9122   0.5729   H         1 1      0.0000
@<TRIPOS>BOND
     1     1     2   ar
     2     1     6   ar
     3     1    29    1
     4     2     3   ar
     5     2     7    1
     6     3     4   ar
     7     3    30    1
     8     4     5   ar
     9     4     8    1
    10     5     6   ar
    11     5     9    1
    12     6    10    1
    13     8    11    1
    14     8    12    1
    15     8    28    1
    16    11    13    1
    17    11    26    1
    18    11    27    1
    19    13    14    1
    20    14    15    1
    21    14    16    1
    22    14    31    1
    23    16    17    1
    24    16    20    2
    25    17    18    1
    26    17    19    1
    27    17    32    1
    28    20    21    1
    29    20    22    1
    30    22    23    1
    31    22    24    1
    32    22    25    1
    33    32    33    1
    34    32    34    1
    35    32    35    1
    36    13    36    1
    37    36    37    1
    38    13    38    1
@<TRIPOS>SUBSTRUCTURE
     1 1           1 GROUP             0 ****  ****    0  
@<TRIPOS>MOLECULE
Molecule Name_00001_00160
    38    38     1     0     0
SMALL
NO_CHARGES
****
Generated from the CSD

@<TRIPOS>ATOM
     1 C5      -3.2489   1.9945  -0.6065   C.ar      1 1      0.0000
     2 C4      -3.2442   0.8707  -1.4406   C.ar      1 1      0.0000
     3 C3      -2.7897  -0.3601  -0.9549   C.ar      1 1      0.0000
     4 C8      -2.3354  -0.4806   0.3676   C.ar      1 1      0.0000
     5 C7      -2.3358   0.6530   1.1946   C.ar      1 1      0.0000
     6 C6      -2.7893   1.8849   0.7105   C.ar      1 1      0.0000
     7 H4      -3.5862   0.9547  -2.4671   H         1 1      0.0000
     8 C9      -1.9105  -1.8336   0.9144   C.3       1 1      0.0000
     9 H7      -1.9674   0.5772   2.2153   H         1 1      0.0000
    10 H6      -2.7779   2.7572   1.3561   H         1 1      0.0000
    11 C10     -0.8132  -2.4481   0.0116   C.3       1 1      0.0000
    12 H9A     -1.5255  -1.7312   1.9351   H         1 1      0.0000
    13 C11      0.5354  -1.8043   0.1696   C.3       1 1      0.0000
    14 C12      0.6594  -0.3467  -0.3053   C.3       1 1      0.0000
    15 H12A     0.0102   0.2885   0.3136   H         1 1      0.0000
    16 C13      2.0377   0.2775  -0.3557   C.2       1 1      0.0000
    17 C14      2.1378   1.7086  -0.7971   C.3       1 1      0.0000
    18 H14B     1.4258   1.8833  -1.6114   H         1 1      0.0000
    19 H14A     3.1410   1.9339  -1.1702   H         1 1      0.0000
    20 N        3.0758  -0.4203   0.0001   N.pl3     1 1      0.0000
    21 HN       2.8510  -1.3918   0.3305   H         1 1      0.0000
    22 C        4.4999   0.0266  -0.0148   C.3       1 1      0.0000
    23 H1A      5.0940  -0.7613   0.4502   H         1 1      0.0000
    24 H1C      4.8334   0.1724  -1.0472   H         1 1      0.0000
    25 H1B      4.6151   0.9544   0.5509   H         1 1      0.0000
    26 H10A    -0.7147  -3.5261   0.2179   H         1 1      0.0000
    27 H10B    -1.1142  -2.3781  -1.0459   H         1 1      0.0000
    28 H9B     -2.7671  -2.5151   0.9604   H         1 1      0.0000
    29 H5      -3.5977   2.9503  -0.9833   H         1 1      0.0000
    30 H3      -2.7748  -1.2266  -1.6123   H         1 1      0.0000
    31 H12B     0.2318  -0.2867  -1.3198   H         1 1      0.0000
    32 C15      1.7943   2.6730   0.3887   C.3       1 1      0.0000
    33 H15A     0.7744   2.5111   0.7510   H         1 1      0.0000
    34 H15B     2.4903   2.5438   1.2230   H         1 1      0.0000
    35 H15C     1.8696   3.7050   0.0336   H         1 1      0.0000
    36 O2       0.8933  -1.8563   1.5366   O.3       1 1      0.0000
    37 H21      0.9306  -2.8032   1.8332   H         1 1      0.0000
    38 H22      1.2572  -2.3997  -0.3875   H         1 1      0.0000
@<TRIPOS>BOND
     1     1     2   ar
     2     1     6   ar
     3     1    29    1
     4     2     3   ar
     5     2     7    1
     6     3     4   ar
     7     3    30    1
     8     4     5   ar
     9     4     8    1
    10     5     6   ar
    11     5     9    1
    12     6    10    1
    13     8    11    1
    14     8    12    1
    15     8    28    1
    16    11    13    1
    17    11    26    1
    18    11    27    1
    19    13    14    1
    20    14    15    1
    21    14    16    1
    22    14    31    1
    23    16    17    1
    24    16    20    2
    25    17    18    1
    26    17    19    1
    27    17    32    1
    28    20    21    1
    29    20    22    1
    30    22    23    1
    31    22    24    1
    32    22    25    1
    33    32    33    1
    34    32    34    1
    35    32    35    1
    36    13    36    1
    37    36    37    1
    38    13    38    1
@<TRIPOS>SUBSTRUCTURE
     1 1           1 GROUP             0 ****  ****    0  
@<TRIPOS>MOLECULE
Molecule Name_00001_00161
    38    38     1     0     0
SMALL
NO_CHARGES
****
Generated from the CSD

@<TRIPOS>ATOM
     1 C5      -3.2900   2.0696  -0.1440   C.ar      1 1      0.0000
     2 C4      -3.1578   1.2400  -1.2634   C.ar      1 1      0.0000
     3 C3      -2.7024  -0.0740  -1.1113   C.ar      1 1      0.0000
     4 C8      -2.3744  -0.5722   0.1592   C.ar      1 1      0.0000
     5 C7      -2.5021   0.2689   1.2751   C.ar      1 1      0.0000
     6 C6      -2.9568   1.5836   1.1250   C.ar      1 1      0.0000
     7 H4      -3.4015   1.6177  -2.2512   H         1 1      0.0000
     8 C9      -1.9494  -2.0213   0.3307   C.3       1 1      0.0000
     9 H7      -2.2321  -0.0989   2.2625   H         1 1      0.0000
    10 H6      -3.0443   2.2282   1.9937   H         1 1      0.0000
    11 C10     -0.7449  -2.3319  -0.5910   C.3       1 1      0.0000
    12 H9A     -1.6701  -2.2186   1.3717   H         1 1      0.0000
    13 C11      0.5542  -1.7481  -0.1118   C.3       1 1      0.0000
    14 C12      0.6636  -0.2140  -0.1269   C.3       1 1      0.0000
    15 H12A    -0.0685   0.2046   0.5781   H         1 1      0.0000
    16 C13      2.0132   0.4125   0.1515   C.2       1 1      0.0000
    17 C14      2.0968   1.9111   0.1581   C.3       1 1      0.0000
    18 H14B     2.9668   2.2191   0.7488   H         1 1      0.0000
    19 H14A     1.2051   2.3509   0.6139   H         1 1      0.0000
    20 N        3.0397  -0.3475   0.3963   N.pl3     1 1      0.0000
    21 HN       2.8241  -1.3756   0.4046   H         1 1      0.0000
    22 C        4.4388   0.0997   0.6618   C.3       1 1      0.0000
    23 H1A      5.0168  -0.7834   0.9376   H         1 1      0.0000
    24 H1C      4.8649   0.5455  -0.2427   H         1 1      0.0000
    25 H1B      4.4600   0.8219   1.4815   H         1 1      0.0000
    26 H10A    -0.6226  -3.4219  -0.6978   H         1 1      0.0000
    27 H10B    -0.9442  -1.9581  -1.6081   H         1 1      0.0000
    28 H9B     -2.7775  -2.6957   0.0863   H         1 1      0.0000
    29 H5      -3.6397   3.0901  -0.2613   H         1 1      0.0000
    30 H3      -2.5878  -0.7094  -1.9868   H         1 1      0.0000
    31 H12B     0.3346   0.1362  -1.1192   H         1 1      0.0000
    32 C15      2.2592   2.4573  -1.3012   C.3       1 1      0.0000
    33 H15A     3.1735   2.0789  -1.7686   H         1 1      0.0000
    34 H15B     1.4038   2.1852  -1.9269   H         1 1      0.0000
    35 H15C     2.3238   3.5486  -1.2613   H         1 1      0.0000
    36 O2       0.7791  -2.1948   1.2108   O.3       1 1      0.0000
    37 H21      0.8264  -3.1866   1.2216   H         1 1      0.0000
    38 H22      1.3507  -2.1460  -0.7388   H         1 1      0.0000
@<TRIPOS>BOND
     1     1     2   ar
     2     1     6   ar
     3     1    29    1
     4     2     3   ar
     5     2     7    1
     6     3     4   ar
     7     3    30    1
     8     4     5   ar
     9     4     8    1
    10     5     6   ar
    11     5     9    1
    12     6    10    1
    13     8    11    1
    14     8    12    1
    15     8    28    1
    16    11    13    1
    17    11    26    1
    18    11    27    1
    19    13    14    1
    20    14    15    1
    21    14    16    1
    22    14    31    1
    23    16    17    1
    24    16    20    2
    25    17    18    1
    26    17    19    1
    27    17    32    1
    28    20    21    1
    29    20    22    1
    30    22    23    1
    31    22    24    1
    32    22    25    1
    33    32    33    1
    34    32    34    1
    35    32    35    1
    36    13    36    1
    37    36    37    1
    38    13    38    1
@<TRIPOS>SUBSTRUCTURE
     1 1           1 GROUP             0 ****  ****    0  
@<TRIPOS>MOLECULE
Molecule Name_00001_00162
    38    38     1     0     0
SMALL
NO_CHARGES
****
Generated from the CSD

@<TRIPOS>ATOM
     1 C5      -5.6728   0.6861   0.0383   C.ar      1 1      0.0000
     2 C4      -4.8509   0.8061  -1.0881   C.ar      1 1      0.0000
     3 C3      -3.5570   0.2744  -1.0709   C.ar      1 1      0.0000
     4 C8      -3.0712  -0.3818   0.0708   C.ar      1 1      0.0000
     5 C7      -3.8990  -0.4906   1.1986   C.ar      1 1      0.0000
     6 C6      -5.1931   0.0411   1.1836   C.ar      1 1      0.0000
     7 H4      -5.2140   1.3184  -1.9733   H         1 1      0.0000
     8 C9      -1.6927  -1.0217   0.0618   C.3       1 1      0.0000
     9 H7      -3.5271  -0.9792   2.0965   H         1 1      0.0000
    10 H6      -5.8221  -0.0414   2.0641   H         1 1      0.0000
    11 C10     -0.6209   0.0361  -0.2976   C.3       1 1      0.0000
    12 H9A     -1.4631  -1.4522   1.0428   H         1 1      0.0000
    13 C11      0.7857  -0.3945   0.0097   C.3       1 1      0.0000
    14 C12      1.9033   0.5910  -0.3715   C.3       1 1      0.0000
    15 H12A     1.7656   1.5246   0.1921   H         1 1      0.0000
    16 C13      3.3406   0.1419  -0.2161   C.2       1 1      0.0000
    17 C14      4.3582   0.7297  -1.1499   C.3       1 1      0.0000
    18 H14B     3.9169   0.8228  -2.1484   H         1 1      0.0000
    19 H14A     5.2377   0.0841  -1.2271   H         1 1      0.0000
    20 N        3.6546  -0.7060   0.7186   N.pl3     1 1      0.0000
    21 HN       2.8489  -0.9971   1.3266   H         1 1      0.0000
    22 C        5.0083  -1.2721   0.9926   C.3       1 1      0.0000
    23 H1A      4.9372  -1.8580   1.9100   H         1 1      0.0000
    24 H1C      5.3132  -1.9237   0.1675   H         1 1      0.0000
    25 H1B      5.7380  -0.4698   1.1260   H         1 1      0.0000
    26 H10A    -0.6852   0.2900  -1.3680   H         1 1      0.0000
    27 H10B    -0.8259   0.9759   0.2396   H         1 1      0.0000
    28 H9B     -1.6540  -1.8399  -0.6658   H         1 1      0.0000
    29 H5      -6.6751   1.1014   0.0272   H         1 1      0.0000
    30 H3      -2.9177   0.3837  -1.9442   H         1 1      0.0000
    31 H12B     1.7570   0.8725  -1.4274   H         1 1      0.0000
    32 C15      4.7969   2.1509  -0.6580   C.3       1 1      0.0000
    33 H15A     3.9471   2.8396  -0.6217   H         1 1      0.0000
    34 H15B     5.2576   2.1058   0.3334   H         1 1      0.0000
    35 H15C     5.5315   2.5535  -1.3616   H         1 1      0.0000
    36 O2       0.8767  -0.6519   1.3970   O.3       1 1      0.0000
    37 H21      0.4350  -1.5171   1.6029   H         1 1      0.0000
    38 H22      0.9712  -1.3297  -0.5165   H         1 1      0.0000
@<TRIPOS>BOND
     1     1     2   ar
     2     1     6   ar
     3     1    29    1
     4     2     3   ar
     5     2     7    1
     6     3     4   ar
     7     3    30    1
     8     4     5   ar
     9     4     8    1
    10     5     6   ar
    11     5     9    1
    12     6    10    1
    13     8    11    1
    14     8    12    1
    15     8    28    1
    16    11    13    1
    17    11    26    1
    18    11    27    1
    19    13    14    1
    20    14    15    1
    21    14    16    1
    22    14    31    1
    23    16    17    1
    24    16    20    2
    25    17    18    1
    26    17    19    1
    27    17    32    1
    28    20    21    1
    29    20    22    1
    30    22    23    1
    31    22    24    1
    32    22    25    1
    33    32    33    1
    34    32    34    1
    35    32    35    1
    36    13    36    1
    37    36    37    1
    38    13    38    1
@<TRIPOS>SUBSTRUCTURE
     1 1           1 GROUP             0 ****  ****    0  
@<TRIPOS>MOLECULE
Molecule Name_00001_00163
    38    38     1     0     0
SMALL
NO_CHARGES
****
Generated from the CSD

@<TRIPOS>ATOM
     1 C5      -5.6750   0.5998   0.0741   C.ar      1 1      0.0000
     2 C4      -4.8133   1.0275  -0.9424   C.ar      1 1      0.0000
     3 C3      -3.4993   0.5501  -0.9937   C.ar      1 1      0.0000
     4 C8      -3.0329  -0.3584  -0.0309   C.ar      1 1      0.0000
     5 C7      -3.9010  -0.7758   0.9895   C.ar      1 1      0.0000
     6 C6      -5.2153  -0.2990   1.0429   C.ar      1 1      0.0000
     7 H4      -5.1616   1.7357  -1.6874   H         1 1      0.0000
     8 C9      -1.6286  -0.9310  -0.1306   C.3       1 1      0.0000
     9 H7      -3.5455  -1.4641   1.7532   H         1 1      0.0000
    10 H6      -5.8759  -0.6221   1.8410   H         1 1      0.0000
    11 C10     -0.5900   0.2169  -0.1569   C.3       1 1      0.0000
    12 H9A     -1.4211  -1.5886   0.7209   H         1 1      0.0000
    13 C11      0.8201  -0.2327   0.1032   C.3       1 1      0.0000
    14 C12      1.9085   0.8522   0.0400   C.3       1 1      0.0000
    15 H12A     1.7071   1.6075   0.8127   H         1 1      0.0000
    16 C13      3.3563   0.4242   0.1503   C.2       1 1      0.0000
    17 C14      4.3850   1.2615  -0.5523   C.3       1 1      0.0000
    18 H14B     5.3601   1.1041  -0.0782   H         1 1      0.0000
    19 H14A     4.1405   2.3251  -0.4792   H         1 1      0.0000
    20 N        3.6682  -0.6227   0.8560   N.pl3     1 1      0.0000
    21 HN       2.8516  -1.0838   1.3293   H         1 1      0.0000
    22 C        5.0328  -1.1964   1.0473   C.3       1 1      0.0000
    23 H1A      4.9496  -1.9978   1.7827   H         1 1      0.0000
    24 H1C      5.3996  -1.6075   0.1013   H         1 1      0.0000
    25 H1B      5.7208  -0.4315   1.4154   H         1 1      0.0000
    26 H10A    -0.6211   0.7317  -1.1307   H         1 1      0.0000
    27 H10B    -0.8578   0.9827   0.5885   H         1 1      0.0000
    28 H9B     -1.5244  -1.5362  -1.0378   H         1 1      0.0000
    29 H5      -6.6932   0.9723   0.1170   H         1 1      0.0000
    30 H3      -2.8299   0.8975  -1.7777   H         1 1      0.0000
    31 H12B     1.7937   1.3874  -0.9170   H         1 1      0.0000
    32 C15      4.4863   0.8530  -2.0613   C.3       1 1      0.0000
    33 H15A     4.7838  -0.1944  -2.1713   H         1 1      0.0000
    34 H15B     3.5360   1.0068  -2.5814   H         1 1      0.0000
    35 H15C     5.2470   1.4752  -2.5421   H         1 1      0.0000
    36 O2       0.8650  -0.8305   1.3839   O.3       1 1      0.0000
    37 H21      0.4532  -1.7332   1.3424   H         1 1      0.0000
    38 H22      1.0678  -0.9976  -0.6313   H         1 1      0.0000
@<TRIPOS>BOND
     1     1     2   ar
     2     1     6   ar
     3     1    29    1
     4     2     3   ar
     5     2     7    1
     6     3     4   ar
     7     3    30    1
     8     4     5   ar
     9     4     8    1
    10     5     6   ar
    11     5     9    1
    12     6    10    1
    13     8    11    1
    14     8    12    1
    15     8    28    1
    16    11    13    1
    17    11    26    1
    18    11    27    1
    19    13    14    1
    20    14    15    1
    21    14    16    1
    22    14    31    1
    23    16    17    1
    24    16    20    2
    25    17    18    1
    26    17    19    1
    27    17    32    1
    28    20    21    1
    29    20    22    1
    30    22    23    1
    31    22    24    1
    32    22    25    1
    33    32    33    1
    34    32    34    1
    35    32    35    1
    36    13    36    1
    37    36    37    1
    38    13    38    1
@<TRIPOS>SUBSTRUCTURE
     1 1           1 GROUP             0 ****  ****    0  
@<TRIPOS>MOLECULE
Molecule Name_00001_00164
    38    38     1     0     0
SMALL
NO_CHARGES
****
Generated from the CSD

@<TRIPOS>ATOM
     1 C5      -5.0380   0.6079  -0.9510   C.ar      1 1      0.0000
     2 C4      -4.7389   0.9369   0.3760   C.ar      1 1      0.0000
     3 C3      -3.6056   0.3965   0.9931   C.ar      1 1      0.0000
     4 C8      -2.7604  -0.4775   0.2917   C.ar      1 1      0.0000
     5 C7      -3.0722  -0.8084  -1.0358   C.ar      1 1      0.0000
     6 C6      -4.2056  -0.2696  -1.6546   C.ar      1 1      0.0000
     7 H4      -5.3899   1.6056   0.9297   H         1 1      0.0000
     8 C9      -1.4914  -1.0057   0.9402   C.3       1 1      0.0000
     9 H7      -2.4363  -1.5003  -1.5837   H         1 1      0.0000
    10 H6      -4.4419  -0.5384  -2.6791   H         1 1      0.0000
    11 C10     -0.2938  -0.0933   0.5794   C.3       1 1      0.0000
    12 H9A     -1.6041  -1.0429   2.0294   H         1 1      0.0000
    13 C11      0.9181  -0.3115   1.4407   C.3       1 1      0.0000
    14 C12      2.1612   0.5280   1.1007   C.3       1 1      0.0000
    15 H12A     2.8946   0.4279   1.9133   H         1 1      0.0000
    16 C13      2.8629   0.2715  -0.2159   C.2       1 1      0.0000
    17 C14      3.5645   1.4275  -0.8673   C.3       1 1      0.0000
    18 H14B     2.9633   2.3337  -0.7328   H         1 1      0.0000
    19 H14A     3.6854   1.2575  -1.9410   H         1 1      0.0000
    20 N        2.8603  -0.9244  -0.7266   N.pl3     1 1      0.0000
    21 HN       2.3703  -1.6443  -0.1390   H         1 1      0.0000
    22 C        3.4749  -1.3442  -2.0205   C.3       1 1      0.0000
    23 H1A      3.3867  -2.4294  -2.0866   H         1 1      0.0000
    24 H1C      2.9362  -0.8839  -2.8550   H         1 1      0.0000
    25 H1B      4.5295  -1.0597  -2.0526   H         1 1      0.0000
    26 H10A    -0.0084  -0.2441  -0.4742   H         1 1      0.0000
    27 H10B    -0.5920   0.9647   0.6540   H         1 1      0.0000
    28 H9B     -1.2845  -2.0272   0.6028   H         1 1      0.0000
    29 H5      -5.9188   1.0235  -1.4294   H         1 1      0.0000
    30 H3      -3.3863   0.6445   2.0293   H         1 1      0.0000
    31 H12B     1.8638   1.5895   1.1158   H         1 1      0.0000
    32 C15      4.9704   1.6537  -0.2143   C.3       1 1      0.0000
    33 H15A     4.8821   1.8813   0.8526   H         1 1      0.0000
    34 H15B     5.6132   0.7766  -0.3363   H         1 1      0.0000
    35 H15C     5.4516   2.5047  -0.7052   H         1 1      0.0000
    36 O2       0.5602  -0.0488   2.7832   O.3       1 1      0.0000
    37 H21      0.0206  -0.8041   3.1357   H         1 1      0.0000
    38 H22      1.1947  -1.3623   1.3682   H         1 1      0.0000
@<TRIPOS>BOND
     1     1     2   ar
     2     1     6   ar
     3     1    29    1
     4     2     3   ar
     5     2     7    1
     6     3     4   ar
     7     3    30    1
     8     4     5   ar
     9     4     8    1
    10     5     6   ar
    11     5     9    1
    12     6    10    1
    13     8    11    1
    14     8    12    1
    15     8    28    1
    16    11    13    1
    17    11    26    1
    18    11    27    1
    19    13    14    1
    20    14    15    1
    21    14    16    1
    22    14    31    1
    23    16    17    1
    24    16    20    2
    25    17    18    1
    26    17    19    1
    27    17    32    1
    28    20    21    1
    29    20    22    1
    30    22    23    1
    31    22    24    1
    32    22    25    1
    33    32    33    1
    34    32    34    1
    35    32    35    1
    36    13    36    1
    37    36    37    1
    38    13    38    1
@<TRIPOS>SUBSTRUCTURE
     1 1           1 GROUP             0 ****  ****    0  
@<TRIPOS>MOLECULE
Molecule Name_00001_00165
    38    38     1     0     0
SMALL
NO_CHARGES
****
Generated from the CSD

@<TRIPOS>ATOM
     1 C5      -5.0190   0.0326  -1.1475   C.ar      1 1      0.0000
     2 C4      -4.0006  -0.8351  -1.5580   C.ar      1 1      0.0000
     3 C3      -2.8559  -0.9941  -0.7696   C.ar      1 1      0.0000
     4 C8      -2.7168  -0.2884   0.4356   C.ar      1 1      0.0000
     5 C7      -3.7389   0.5857   0.8357   C.ar      1 1      0.0000
     6 C6      -4.8843   0.7466   0.0483   C.ar      1 1      0.0000
     7 H4      -4.0947  -1.3797  -2.4919   H         1 1      0.0000
     8 C9      -1.5061  -0.5175   1.3255   C.3       1 1      0.0000
     9 H7      -3.6342   1.1534   1.7576   H         1 1      0.0000
    10 H6      -5.6653   1.4312   0.3630   H         1 1      0.0000
    11 C10     -0.3441   0.4061   0.8857   C.3       1 1      0.0000
    12 H9A     -1.7556  -0.3133   2.3727   H         1 1      0.0000
    13 C11      0.9912   0.0163   1.4543   C.3       1 1      0.0000
    14 C12      2.2023   0.8422   0.9888   C.3       1 1      0.0000
    15 H12A     2.9734   0.8205   1.7718   H         1 1      0.0000
    16 C13      2.8483   0.4871  -0.3334   C.2       1 1      0.0000
    17 C14      4.2977   0.8324  -0.5148   C.3       1 1      0.0000
    18 H14B     4.4953   1.8051  -0.0508   H         1 1      0.0000
    19 H14A     4.5531   0.9051  -1.5758   H         1 1      0.0000
    20 N        2.1519  -0.1169  -1.2507   N.pl3     1 1      0.0000
    21 HN       1.1643  -0.3375  -0.9684   H         1 1      0.0000
    22 C        2.6201  -0.5125  -2.6117   C.3       1 1      0.0000
    23 H1A      1.8225  -1.0954  -3.0744   H         1 1      0.0000
    24 H1C      2.8132   0.3815  -3.2132   H         1 1      0.0000
    25 H1B      3.5253  -1.1206  -2.5426   H         1 1      0.0000
    26 H10A    -0.2680   0.4196  -0.2136   H         1 1      0.0000
    27 H10B    -0.5601   1.4463   1.1776   H         1 1      0.0000
    28 H9B     -1.1810  -1.5622   1.2698   H         1 1      0.0000
    29 H5      -5.9056   0.1595  -1.7600   H         1 1      0.0000
    30 H3      -2.0612  -1.6589  -1.1012   H         1 1      0.0000
    31 H12B     1.8868   1.8970   0.9301   H         1 1      0.0000
    32 C15      5.2072  -0.2456   0.1671   C.3       1 1      0.0000
    33 H15A     5.0154  -0.3057   1.2429   H         1 1      0.0000
    34 H15B     5.0540  -1.2348  -0.2748   H         1 1      0.0000
    35 H15C     6.2540   0.0378   0.0233   H         1 1      0.0000
    36 O2       0.9137   0.1001   2.8636   O.3       1 1      0.0000
    37 H21      0.2799  -0.5855   3.2016   H         1 1      0.0000
    38 H22      1.1755  -1.0242   1.1911   H         1 1      0.0000
@<TRIPOS>BOND
     1     1     2   ar
     2     1     6   ar
     3     1    29    1
     4     2     3   ar
     5     2     7    1
     6     3     4   ar
     7     3    30    1
     8     4     5   ar
     9     4     8    1
    10     5     6   ar
    11     5     9    1
    12     6    10    1
    13     8    11    1
    14     8    12    1
    15     8    28    1
    16    11    13    1
    17    11    26    1
    18    11    27    1
    19    13    14    1
    20    14    15    1
    21    14    16    1
    22    14    31    1
    23    16    17    1
    24    16    20    2
    25    17    18    1
    26    17    19    1
    27    17    32    1
    28    20    21    1
    29    20    22    1
    30    22    23    1
    31    22    24    1
    32    22    25    1
    33    32    33    1
    34    32    34    1
    35    32    35    1
    36    13    36    1
    37    36    37    1
    38    13    38    1
@<TRIPOS>SUBSTRUCTURE
     1 1           1 GROUP             0 ****  ****    0  
@<TRIPOS>MOLECULE
Molecule Name_00001_00166
    38    38     1     0     0
SMALL
NO_CHARGES
****
Generated from the CSD

@<TRIPOS>ATOM
     1 C5      -4.1615  -1.2695   1.1928   C.ar      1 1      0.0000
     2 C4      -3.1313  -0.5247   1.7779   C.ar      1 1      0.0000
     3 C3      -2.3866   0.3704   1.0025   C.ar      1 1      0.0000
     4 C8      -2.6631   0.5305  -0.3642   C.ar      1 1      0.0000
     5 C7      -3.6925  -0.2261  -0.9447   C.ar      1 1      0.0000
     6 C6      -4.4379  -1.1224  -0.1710   C.ar      1 1      0.0000
     7 H4      -2.9042  -0.6465   2.8322   H         1 1      0.0000
     8 C9      -1.9014   1.5558  -1.1879   C.3       1 1      0.0000
     9 H7      -3.9034  -0.1260  -2.0071   H         1 1      0.0000
    10 H6      -5.2265  -1.7086  -0.6316   H         1 1      0.0000
    11 C10     -0.5988   0.9279  -1.7410   C.3       1 1      0.0000
    12 H9A     -2.5161   1.9106  -2.0226   H         1 1      0.0000
    13 C11      0.4318   0.6375  -0.6866   C.3       1 1      0.0000
    14 C12      1.7324  -0.0300  -1.1645   C.3       1 1      0.0000
    15 H12A     2.2369   0.6373  -1.8776   H         1 1      0.0000
    16 C13      2.7384  -0.4705  -0.1225   C.2       1 1      0.0000
    17 C14      3.9405   0.4013   0.0966   C.3       1 1      0.0000
    18 H14B     4.2837   0.7880  -0.8694   H         1 1      0.0000
    19 H14A     4.7603  -0.1676   0.5443   H         1 1      0.0000
    20 N        2.5280  -1.5580   0.5589   N.pl3     1 1      0.0000
    21 HN       1.6236  -2.0419   0.3323   H         1 1      0.0000
    22 C        3.4231  -2.1483   1.5973   C.3       1 1      0.0000
    23 H1A      2.8932  -2.9906   2.0442   H         1 1      0.0000
    24 H1C      4.3475  -2.5056   1.1321   H         1 1      0.0000
    25 H1B      3.6530  -1.4093   2.3686   H         1 1      0.0000
    26 H10A    -0.8285  -0.0080  -2.2757   H         1 1      0.0000
    27 H10B    -0.1515   1.5946  -2.4955   H         1 1      0.0000
    28 H9B     -1.6523   2.4304  -0.5770   H         1 1      0.0000
    29 H5      -4.7373  -1.9668   1.7925   H         1 1      0.0000
    30 H3      -1.5775   0.9357   1.4598   H         1 1      0.0000
    31 H12B     1.4562  -0.9194  -1.7544   H         1 1      0.0000
    32 C15      3.5784   1.6108   1.0240   C.3       1 1      0.0000
    33 H15A     3.0764   2.4058   0.4640   H         1 1      0.0000
    34 H15B     2.9335   1.3004   1.8517   H         1 1      0.0000
    35 H15C     4.5027   2.0204   1.4421   H         1 1      0.0000
    36 O2       0.7671   1.8540  -0.0486   O.3       1 1      0.0000
    37 H21      0.0229   2.1312   0.5475   H         1 1      0.0000
    38 H22     -0.0249  -0.0146   0.0564   H         1 1      0.0000
@<TRIPOS>BOND
     1     1     2   ar
     2     1     6   ar
     3     1    29    1
     4     2     3   ar
     5     2     7    1
     6     3     4   ar
     7     3    30    1
     8     4     5   ar
     9     4     8    1
    10     5     6   ar
    11     5     9    1
    12     6    10    1
    13     8    11    1
    14     8    12    1
    15     8    28    1
    16    11    13    1
    17    11    26    1
    18    11    27    1
    19    13    14    1
    20    14    15    1
    21    14    16    1
    22    14    31    1
    23    16    17    1
    24    16    20    2
    25    17    18    1
    26    17    19    1
    27    17    32    1
    28    20    21    1
    29    20    22    1
    30    22    23    1
    31    22    24    1
    32    22    25    1
    33    32    33    1
    34    32    34    1
    35    32    35    1
    36    13    36    1
    37    36    37    1
    38    13    38    1
@<TRIPOS>SUBSTRUCTURE
     1 1           1 GROUP             0 ****  ****    0  
@<TRIPOS>MOLECULE
Molecule Name_00001_00167
    38    38     1     0     0
SMALL
NO_CHARGES
****
Generated from the CSD

@<TRIPOS>ATOM
     1 C5      -4.1566   1.5249  -1.0117   C.ar      1 1      0.0000
     2 C4      -4.6548   0.2171  -1.0028   C.ar      1 1      0.0000
     3 C3      -3.9523  -0.7954  -0.3406   C.ar      1 1      0.0000
     4 C8      -2.7459  -0.5122   0.3186   C.ar      1 1      0.0000
     5 C7      -2.2494   0.8001   0.2977   C.ar      1 1      0.0000
     6 C6      -2.9502   1.8140  -0.3646   C.ar      1 1      0.0000
     7 H4      -5.5827  -0.0141  -1.5158   H         1 1      0.0000
     8 C9      -2.0223  -1.5979   1.0980   C.3       1 1      0.0000
     9 H7      -1.3055   1.0283   0.7877   H         1 1      0.0000
    10 H6      -2.5532   2.8239  -0.3814   H         1 1      0.0000
    11 C10     -0.6941  -1.0436   1.6684   C.3       1 1      0.0000
    12 H9A     -2.6476  -1.9605   1.9215   H         1 1      0.0000
    13 C11      0.3702  -0.8265   0.6299   C.3       1 1      0.0000
    14 C12      1.6940  -0.2171   1.1216   C.3       1 1      0.0000
    15 H12A     2.1496  -0.8952   1.8570   H         1 1      0.0000
    16 C13      2.7412   0.1511   0.0923   C.2       1 1      0.0000
    17 C14      2.4989   1.3769  -0.7393   C.3       1 1      0.0000
    18 H14B     1.4347   1.4324  -0.9944   H         1 1      0.0000
    19 H14A     3.0691   1.3365  -1.6717   H         1 1      0.0000
    20 N        3.8132  -0.5754  -0.0264   N.pl3     1 1      0.0000
    21 HN       3.8707  -1.3752   0.6522   H         1 1      0.0000
    22 C        4.9256  -0.3731  -1.0010   C.3       1 1      0.0000
    23 H1A      5.7113  -1.0878  -0.7521   H         1 1      0.0000
    24 H1C      4.5686  -0.5645  -2.0180   H         1 1      0.0000
    25 H1B      5.3184   0.6438  -0.9267   H         1 1      0.0000
    26 H10A    -0.8761  -0.0902   2.1902   H         1 1      0.0000
    27 H10B    -0.3007  -1.7281   2.4369   H         1 1      0.0000
    28 H9B     -1.8101  -2.4572   0.4524   H         1 1      0.0000
    29 H5      -4.6987   2.3102  -1.5282   H         1 1      0.0000
    30 H3      -4.3371  -1.8128  -0.3495   H         1 1      0.0000
    31 H12B     1.4525   0.6966   1.6893   H         1 1      0.0000
    32 C15      2.8943   2.6665   0.0575   C.3       1 1      0.0000
    33 H15A     2.3016   2.7669   0.9721   H         1 1      0.0000
    34 H15B     3.9557   2.6621   0.3231   H         1 1      0.0000
    35 H15C     2.6999   3.5401  -0.5717   H         1 1      0.0000
    36 O2       0.6549  -2.0706   0.0211   O.3       1 1      0.0000
    37 H21     -0.0974  -2.3278  -0.5738   H         1 1      0.0000
    38 H22     -0.0381  -0.1665  -0.1339   H         1 1      0.0000
@<TRIPOS>BOND
     1     1     2   ar
     2     1     6   ar
     3     1    29    1
     4     2     3   ar
     5     2     7    1
     6     3     4   ar
     7     3    30    1
     8     4     5   ar
     9     4     8    1
    10     5     6   ar
    11     5     9    1
    12     6    10    1
    13     8    11    1
    14     8    12    1
    15     8    28    1
    16    11    13    1
    17    11    26    1
    18    11    27    1
    19    13    14    1
    20    14    15    1
    21    14    16    1
    22    14    31    1
    23    16    17    1
    24    16    20    2
    25    17    18    1
    26    17    19    1
    27    17    32    1
    28    20    21    1
    29    20    22    1
    30    22    23    1
    31    22    24    1
    32    22    25    1
    33    32    33    1
    34    32    34    1
    35    32    35    1
    36    13    36    1
    37    36    37    1
    38    13    38    1
@<TRIPOS>SUBSTRUCTURE
     1 1           1 GROUP             0 ****  ****    0  
@<TRIPOS>MOLECULE
Molecule Name_00001_00168
    38    38     1     0     0
SMALL
NO_CHARGES
****
Generated from the CSD

@<TRIPOS>ATOM
     1 C5      -4.0628   1.8058  -0.5481   C.ar      1 1      0.0000
     2 C4      -4.5086   0.5746  -1.0421   C.ar      1 1      0.0000
     3 C3      -3.8124  -0.5983  -0.7312   C.ar      1 1      0.0000
     4 C8      -2.6646  -0.5534   0.0754   C.ar      1 1      0.0000
     5 C7      -2.2198   0.6862   0.5597   C.ar      1 1      0.0000
     6 C6      -2.9144   1.8605   0.2494   C.ar      1 1      0.0000
     7 H4      -5.3906   0.5296  -1.6728   H         1 1      0.0000
     8 C9      -1.9521  -1.8362   0.4711   C.3       1 1      0.0000
     9 H7      -1.3203   0.7368   1.1692   H         1 1      0.0000
    10 H6      -2.5573   2.8149   0.6226   H         1 1      0.0000
    11 C10     -0.6875  -1.5048   1.3004   C.3       1 1      0.0000
    12 H9A     -2.6159  -2.4771   1.0620   H         1 1      0.0000
    13 C11      0.4340  -0.9173   0.4909   C.3       1 1      0.0000
    14 C12      1.6971  -0.5063   1.2662   C.3       1 1      0.0000
    15 H12A     2.1292  -1.3962   1.7452   H         1 1      0.0000
    16 C13      2.7950   0.2189   0.5177   C.2       1 1      0.0000
    17 C14      2.5603   1.6576   0.1597   C.3       1 1      0.0000
    18 H14B     3.5266   2.1519   0.0098   H         1 1      0.0000
    19 H14A     2.0336   2.1801   0.9634   H         1 1      0.0000
    20 N        3.9004  -0.4032   0.2306   N.pl3     1 1      0.0000
    21 HN       3.9442  -1.3917   0.5833   H         1 1      0.0000
    22 C        5.0662   0.1484  -0.5209   C.3       1 1      0.0000
    23 H1A      5.8612  -0.5976  -0.4830   H         1 1      0.0000
    24 H1C      4.7854   0.3282  -1.5636   H         1 1      0.0000
    25 H1B      5.4128   1.0768  -0.0606   H         1 1      0.0000
    26 H10A    -0.9412  -0.8030   2.1113   H         1 1      0.0000
    27 H10B    -0.3195  -2.4134   1.8033   H         1 1      0.0000
    28 H9B     -1.6638  -2.4055  -0.4194   H         1 1      0.0000
    29 H5      -4.6000   2.7166  -0.7916   H         1 1      0.0000
    30 H3      -4.1553  -1.5505  -1.1301   H         1 1      0.0000
    31 H12B     1.3826   0.1412   2.1013   H         1 1      0.0000
    32 C15      1.7287   1.7643  -1.1636   C.3       1 1      0.0000
    33 H15A     2.0835   1.0526  -1.9154   H         1 1      0.0000
    34 H15B     0.6646   1.5853  -0.9821   H         1 1      0.0000
    35 H15C     1.8442   2.7737  -1.5692   H         1 1      0.0000
    36 O2       0.8072  -1.8581  -0.4964   O.3       1 1      0.0000
    37 H21      0.2179  -1.7574  -1.2892   H         1 1      0.0000
    38 H22      0.0516  -0.0334  -0.0174   H         1 1      0.0000
@<TRIPOS>BOND
     1     1     2   ar
     2     1     6   ar
     3     1    29    1
     4     2     3   ar
     5     2     7    1
     6     3     4   ar
     7     3    30    1
     8     4     5   ar
     9     4     8    1
    10     5     6   ar
    11     5     9    1
    12     6    10    1
    13     8    11    1
    14     8    12    1
    15     8    28    1
    16    11    13    1
    17    11    26    1
    18    11    27    1
    19    13    14    1
    20    14    15    1
    21    14    16    1
    22    14    31    1
    23    16    17    1
    24    16    20    2
    25    17    18    1
    26    17    19    1
    27    17    32    1
    28    20    21    1
    29    20    22    1
    30    22    23    1
    31    22    24    1
    32    22    25    1
    33    32    33    1
    34    32    34    1
    35    32    35    1
    36    13    36    1
    37    36    37    1
    38    13    38    1
@<TRIPOS>SUBSTRUCTURE
     1 1           1 GROUP             0 ****  ****    0  
@<TRIPOS>MOLECULE
Molecule Name_00001_00169
    38    38     1     0     0
SMALL
NO_CHARGES
****
Generated from the CSD

@<TRIPOS>ATOM
     1 C5      -4.3134  -1.6737   0.1420   C.ar      1 1      0.0000
     2 C4      -4.7151  -0.5893   0.9302   C.ar      1 1      0.0000
     3 C3      -3.9435   0.5773   0.9619   C.ar      1 1      0.0000
     4 C8      -2.7638   0.6723   0.2075   C.ar      1 1      0.0000
     5 C7      -2.3640  -0.4227  -0.5737   C.ar      1 1      0.0000
     6 C6      -3.1340  -1.5905  -0.6062   C.ar      1 1      0.0000
     7 H4      -5.6216  -0.6551   1.5233   H         1 1      0.0000
     8 C9      -1.9663   1.9660   0.1870   C.3       1 1      0.0000
     9 H7      -1.4413  -0.3690  -1.1472   H         1 1      0.0000
    10 H6      -2.8115  -2.4345  -1.2074   H         1 1      0.0000
    11 C10     -0.6843   1.7836  -0.6617   C.3       1 1      0.0000
    12 H9A     -2.5669   2.7803  -0.2333   H         1 1      0.0000
    13 C11      0.3657   0.9343  -0.0027   C.3       1 1      0.0000
    14 C12      1.6394   0.6613  -0.8203   C.3       1 1      0.0000
    15 H12A     2.1503   1.6145  -1.0170   H         1 1      0.0000
    16 C13      2.6498  -0.3219  -0.2688   C.2       1 1      0.0000
    17 C14      3.4860   0.1196   0.8969   C.3       1 1      0.0000
    18 H14B     3.8526  -0.7645   1.4303   H         1 1      0.0000
    19 H14A     2.8963   0.7176   1.5975   H         1 1      0.0000
    20 N        2.7491  -1.5079  -0.7930   N.pl3     1 1      0.0000
    21 HN       2.0693  -1.6946  -1.5718   H         1 1      0.0000
    22 C        3.7035  -2.5838  -0.3934   C.3       1 1      0.0000
    23 H1A      3.4404  -3.4794  -0.9577   H         1 1      0.0000
    24 H1C      4.7268  -2.2846  -0.6421   H         1 1      0.0000
    25 H1B      3.6224  -2.7883   0.6770   H         1 1      0.0000
    26 H10A    -0.9375   1.3366  -1.6366   H         1 1      0.0000
    27 H10B    -0.2454   2.7669  -0.8949   H         1 1      0.0000
    28 H9B     -1.6893   2.2623   1.2047   H         1 1      0.0000
    29 H5      -4.9091  -2.5803   0.1196   H         1 1      0.0000
    30 H3      -4.2532   1.4114   1.5878   H         1 1      0.0000
    31 H12B     1.3293   0.2952  -1.8128   H         1 1      0.0000
    32 C15      4.7150   0.9567   0.4038   C.3       1 1      0.0000
    33 H15A     5.3579   0.3682  -0.2581   H         1 1      0.0000
    34 H15B     4.3966   1.8602  -0.1248   H         1 1      0.0000
    35 H15C     5.3061   1.2566   1.2741   H         1 1      0.0000
    36 O2       0.7427   1.5576   1.2093   O.3       1 1      0.0000
    37 H21      0.0100   1.4618   1.8726   H         1 1      0.0000
    38 H22     -0.0864  -0.0258   0.2420   H         1 1      0.0000
@<TRIPOS>BOND
     1     1     2   ar
     2     1     6   ar
     3     1    29    1
     4     2     3   ar
     5     2     7    1
     6     3     4   ar
     7     3    30    1
     8     4     5   ar
     9     4     8    1
    10     5     6   ar
    11     5     9    1
    12     6    10    1
    13     8    11    1
    14     8    12    1
    15     8    28    1
    16    11    13    1
    17    11    26    1
    18    11    27    1
    19    13    14    1
    20    14    15    1
    21    14    16    1
    22    14    31    1
    23    16    17    1
    24    16    20    2
    25    17    18    1
    26    17    19    1
    27    17    32    1
    28    20    21    1
    29    20    22    1
    30    22    23    1
    31    22    24    1
    32    22    25    1
    33    32    33    1
    34    32    34    1
    35    32    35    1
    36    13    36    1
    37    36    37    1
    38    13    38    1
@<TRIPOS>SUBSTRUCTURE
     1 1           1 GROUP             0 ****  ****    0  
@<TRIPOS>MOLECULE
Molecule Name_00001_00170
    38    38     1     0     0
SMALL
NO_CHARGES
****
Generated from the CSD

@<TRIPOS>ATOM
     1 C5      -4.0559   0.6009  -1.5864   C.ar      1 1      0.0000
     2 C4      -3.5773  -0.7138  -1.5544   C.ar      1 1      0.0000
     3 C3      -2.8828  -1.1793  -0.4327   C.ar      1 1      0.0000
     4 C8      -2.6594  -0.3368   0.6675   C.ar      1 1      0.0000
     5 C7      -3.1356   0.9823   0.6238   C.ar      1 1      0.0000
     6 C6      -3.8298   1.4499  -0.4974   C.ar      1 1      0.0000
     7 H4      -3.7380  -1.3711  -2.4029   H         1 1      0.0000
     8 C9      -1.9687  -0.8662   1.9135   C.3       1 1      0.0000
     9 H7      -2.9515   1.6512   1.4617   H         1 1      0.0000
    10 H6      -4.1868   2.4744  -0.5242   H         1 1      0.0000
    11 C10     -0.6325  -0.1166   2.1365   C.3       1 1      0.0000
    12 H9A     -2.6095  -0.7349   2.7925   H         1 1      0.0000
    13 C11      0.4191  -0.4294   1.1096   C.3       1 1      0.0000
    14 C12      1.3967   0.7057   0.7615   C.3       1 1      0.0000
    15 H12A     1.9570   0.9859   1.6647   H         1 1      0.0000
    16 C13      2.3813   0.4846  -0.3669   C.2       1 1      0.0000
    17 C14      3.3452   1.5928  -0.6766   C.3       1 1      0.0000
    18 H14B     2.8293   2.5545  -0.5784   H         1 1      0.0000
    19 H14A     3.7186   1.5119  -1.7014   H         1 1      0.0000
    20 N        2.3829  -0.6455  -1.0104   N.pl3     1 1      0.0000
    21 HN       1.6850  -1.3459  -0.6554   H         1 1      0.0000
    22 C        3.2606  -1.0180  -2.1587   C.3       1 1      0.0000
    23 H1A      3.0777  -2.0701  -2.3813   H         1 1      0.0000
    24 H1C      3.0060  -0.4114  -3.0338   H         1 1      0.0000
    25 H1B      4.3122  -0.8764  -1.8976   H         1 1      0.0000
    26 H10A    -0.8066   0.9715   2.1417   H         1 1      0.0000
    27 H10B    -0.2308  -0.3541   3.1345   H         1 1      0.0000
    28 H9B     -1.7714  -1.9395   1.8164   H         1 1      0.0000
    29 H5      -4.5914   0.9640  -2.4574   H         1 1      0.0000
    30 H3      -2.5005  -2.1976  -0.4198   H         1 1      0.0000
    31 H12B     0.7996   1.5976   0.5096   H         1 1      0.0000
    32 C15      4.5523   1.5639   0.3214   C.3       1 1      0.0000
    33 H15A     4.2180   1.6979   1.3549   H         1 1      0.0000
    34 H15B     5.1080   0.6241   0.2490   H         1 1      0.0000
    35 H15C     5.2309   2.3856   0.0740   H         1 1      0.0000
    36 O2       1.1707  -1.5357   1.5686   O.3       1 1      0.0000
    37 H21      0.5696  -2.3168   1.6900   H         1 1      0.0000
    38 H22     -0.0875  -0.7270   0.1927   H         1 1      0.0000
@<TRIPOS>BOND
     1     1     2   ar
     2     1     6   ar
     3     1    29    1
     4     2     3   ar
     5     2     7    1
     6     3     4   ar
     7     3    30    1
     8     4     5   ar
     9     4     8    1
    10     5     6   ar
    11     5     9    1
    12     6    10    1
    13     8    11    1
    14     8    12    1
    15     8    28    1
    16    11    13    1
    17    11    26    1
    18    11    27    1
    19    13    14    1
    20    14    15    1
    21    14    16    1
    22    14    31    1
    23    16    17    1
    24    16    20    2
    25    17    18    1
    26    17    19    1
    27    17    32    1
    28    20    21    1
    29    20    22    1
    30    22    23    1
    31    22    24    1
    32    22    25    1
    33    32    33    1
    34    32    34    1
    35    32    35    1
    36    13    36    1
    37    36    37    1
    38    13    38    1
@<TRIPOS>SUBSTRUCTURE
     1 1           1 GROUP             0 ****  ****    0  
@<TRIPOS>MOLECULE
Molecule Name_00001_00171
    38    38     1     0     0
SMALL
NO_CHARGES
****
Generated from the CSD

@<TRIPOS>ATOM
     1 C5      -3.8170   1.1232  -1.4478   C.ar      1 1      0.0000
     2 C4      -3.4146  -0.1908  -1.7124   C.ar      1 1      0.0000
     3 C3      -2.8091  -0.9536  -0.7080   C.ar      1 1      0.0000
     4 C8      -2.5995  -0.4120   0.5698   C.ar      1 1      0.0000
     5 C7      -2.9987   0.9089   0.8242   C.ar      1 1      0.0000
     6 C6      -3.6037   1.6737  -0.1792   C.ar      1 1      0.0000
     7 H4      -3.5651  -0.6166  -2.6992   H         1 1      0.0000
     8 C9      -2.0081  -1.2659   1.6793   C.3       1 1      0.0000
     9 H7      -2.8236   1.3469   1.8044   H         1 1      0.0000
    10 H6      -3.9013   2.6970   0.0259   H         1 1      0.0000
    11 C10     -0.6466  -0.6814   2.1280   C.3       1 1      0.0000
    12 H9A     -2.6876  -1.3035   2.5380   H         1 1      0.0000
    13 C11      0.4404  -0.8122   1.0986   C.3       1 1      0.0000
    14 C12      1.4971   0.3051   1.0713   C.3       1 1      0.0000
    15 H12A     2.0220   0.3257   2.0368   H         1 1      0.0000
    16 C13      2.5279   0.2917  -0.0373   C.2       1 1      0.0000
    17 C14      3.5672   1.3746  -0.0343   C.3       1 1      0.0000
    18 H14B     4.4425   1.0330  -0.5978   H         1 1      0.0000
    19 H14A     3.8894   1.6052   0.9851   H         1 1      0.0000
    20 N        2.5017  -0.6518  -0.9319   N.pl3     1 1      0.0000
    21 HN       1.7477  -1.3680  -0.7828   H         1 1      0.0000
    22 C        3.4186  -0.8002  -2.1003   C.3       1 1      0.0000
    23 H1A      3.1899  -1.7552  -2.5753   H         1 1      0.0000
    24 H1C      3.2461   0.0117  -2.8141   H         1 1      0.0000
    25 H1B      4.4606  -0.7949  -1.7713   H         1 1      0.0000
    26 H10A    -0.7599   0.3839   2.3865   H         1 1      0.0000
    27 H10B    -0.3135  -1.1744   3.0553   H         1 1      0.0000
    28 H9B     -1.8657  -2.2965   1.3360   H         1 1      0.0000
    29 H5      -4.2833   1.7169  -2.2271   H         1 1      0.0000
    30 H3      -2.4852  -1.9694  -0.9240   H         1 1      0.0000
    31 H12B     0.9650   1.2691   1.0166   H         1 1      0.0000
    32 C15      3.0078   2.6727  -0.7099   C.3       1 1      0.0000
    33 H15A     2.7262   2.4898  -1.7515   H         1 1      0.0000
    34 H15B     2.1376   3.0600  -0.1715   H         1 1      0.0000
    35 H15C     3.7893   3.4381  -0.6979   H         1 1      0.0000
    36 O2       1.1033  -2.0433   1.3089   O.3       1 1      0.0000
    37 H21      0.4542  -2.7889   1.2159   H         1 1      0.0000
    38 H22     -0.0312  -0.8500   0.1177   H         1 1      0.0000
@<TRIPOS>BOND
     1     1     2   ar
     2     1     6   ar
     3     1    29    1
     4     2     3   ar
     5     2     7    1
     6     3     4   ar
     7     3    30    1
     8     4     5   ar
     9     4     8    1
    10     5     6   ar
    11     5     9    1
    12     6    10    1
    13     8    11    1
    14     8    12    1
    15     8    28    1
    16    11    13    1
    17    11    26    1
    18    11    27    1
    19    13    14    1
    20    14    15    1
    21    14    16    1
    22    14    31    1
    23    16    17    1
    24    16    20    2
    25    17    18    1
    26    17    19    1
    27    17    32    1
    28    20    21    1
    29    20    22    1
    30    22    23    1
    31    22    24    1
    32    22    25    1
    33    32    33    1
    34    32    34    1
    35    32    35    1
    36    13    36    1
    37    36    37    1
    38    13    38    1
@<TRIPOS>SUBSTRUCTURE
     1 1           1 GROUP             0 ****  ****    0  
@<TRIPOS>MOLECULE
Molecule Name_00001_00172
    38    38     1     0     0
SMALL
NO_CHARGES
****
Generated from the CSD

@<TRIPOS>ATOM
     1 C5      -5.6590   0.5717   0.0688   C.ar      1 1      0.0000
     2 C4      -4.6370   1.5205   0.1864   C.ar      1 1      0.0000
     3 C3      -3.3032   1.1394   0.0053   C.ar      1 1      0.0000
     4 C8      -2.9769  -0.1924  -0.2947   C.ar      1 1      0.0000
     5 C7      -4.0071  -1.1390  -0.4028   C.ar      1 1      0.0000
     6 C6      -5.3417  -0.7598  -0.2213   C.ar      1 1      0.0000
     7 H4      -4.8778   2.5513   0.4256   H         1 1      0.0000
     8 C9      -1.5343  -0.5891  -0.5625   C.3       1 1      0.0000
     9 H7      -3.7658  -2.1782  -0.6151   H         1 1      0.0000
    10 H6      -6.1301  -1.5015  -0.2992   H         1 1      0.0000
    11 C10     -0.6472  -0.2058   0.6470   C.3       1 1      0.0000
    12 H9A     -1.4597  -1.6677  -0.7399   H         1 1      0.0000
    13 C11      0.8029  -0.5605   0.4744   C.3       1 1      0.0000
    14 C12      1.7468   0.5868   0.0766   C.3       1 1      0.0000
    15 H12A     1.7341   1.3515   0.8660   H         1 1      0.0000
    16 C13      3.1873   0.2521  -0.2468   C.2       1 1      0.0000
    17 C14      4.1011   1.3867  -0.6082   C.3       1 1      0.0000
    18 H14B     3.5524   2.1061  -1.2263   H         1 1      0.0000
    19 H14A     4.9592   1.0299  -1.1850   H         1 1      0.0000
    20 N        3.5939  -0.9814  -0.1815   N.pl3     1 1      0.0000
    21 HN       2.8578  -1.6633   0.1294   H         1 1      0.0000
    22 C        4.9633  -1.4878  -0.4920   C.3       1 1      0.0000
    23 H1A      4.9883  -2.5453  -0.2252   H         1 1      0.0000
    24 H1C      5.1670  -1.3778  -1.5620   H         1 1      0.0000
    25 H1B      5.7124  -0.9454   0.0899   H         1 1      0.0000
    26 H10A    -0.7238   0.8758   0.8436   H         1 1      0.0000
    27 H10B    -1.0229  -0.6969   1.5589   H         1 1      0.0000
    28 H9B     -1.1591  -0.0881  -1.4616   H         1 1      0.0000
    29 H5      -6.6935   0.8655   0.2128   H         1 1      0.0000
    30 H3      -2.5121   1.8784   0.1124   H         1 1      0.0000
    31 H12B     1.3162   1.0844  -0.8079   H         1 1      0.0000
    32 C15      4.6078   2.1148   0.6830   C.3       1 1      0.0000
    33 H15A     3.7753   2.5330   1.2572   H         1 1      0.0000
    34 H15B     5.1757   1.4366   1.3271   H         1 1      0.0000
    35 H15C     5.2640   2.9382   0.3860   H         1 1      0.0000
    36 O2       1.2698  -1.1174   1.6873   O.3       1 1      0.0000
    37 H21      0.7429  -1.9312   1.9023   H         1 1      0.0000
    38 H22      0.8695  -1.3295  -0.2938   H         1 1      0.0000
@<TRIPOS>BOND
     1     1     2   ar
     2     1     6   ar
     3     1    29    1
     4     2     3   ar
     5     2     7    1
     6     3     4   ar
     7     3    30    1
     8     4     5   ar
     9     4     8    1
    10     5     6   ar
    11     5     9    1
    12     6    10    1
    13     8    11    1
    14     8    12    1
    15     8    28    1
    16    11    13    1
    17    11    26    1
    18    11    27    1
    19    13    14    1
    20    14    15    1
    21    14    16    1
    22    14    31    1
    23    16    17    1
    24    16    20    2
    25    17    18    1
    26    17    19    1
    27    17    32    1
    28    20    21    1
    29    20    22    1
    30    22    23    1
    31    22    24    1
    32    22    25    1
    33    32    33    1
    34    32    34    1
    35    32    35    1
    36    13    36    1
    37    36    37    1
    38    13    38    1
@<TRIPOS>SUBSTRUCTURE
     1 1           1 GROUP             0 ****  ****    0  
@<TRIPOS>MOLECULE
Molecule Name_00001_00173
    38    38     1     0     0
SMALL
NO_CHARGES
****
Generated from the CSD

@<TRIPOS>ATOM
     1 C5      -5.6223   0.5842   0.1020   C.ar      1 1      0.0000
     2 C4      -4.6153   1.4054   0.6218   C.ar      1 1      0.0000
     3 C3      -3.2705   1.0923   0.3969   C.ar      1 1      0.0000
     4 C8      -2.9181  -0.0435  -0.3487   C.ar      1 1      0.0000
     5 C7      -3.9339  -0.8659  -0.8593   C.ar      1 1      0.0000
     6 C6      -5.2795  -0.5548  -0.6348   C.ar      1 1      0.0000
     7 H4      -4.8767   2.2818   1.2061   H         1 1      0.0000
     8 C9      -1.4591  -0.3414  -0.6529   C.3       1 1      0.0000
     9 H7      -3.6737  -1.7599  -1.4216   H         1 1      0.0000
    10 H6      -6.0571  -1.2021  -1.0274   H         1 1      0.0000
    11 C10     -0.6540  -0.4430   0.6655   C.3       1 1      0.0000
    12 H9A     -1.3672  -1.2817  -1.2077   H         1 1      0.0000
    13 C11      0.8061  -0.7367   0.4654   C.3       1 1      0.0000
    14 C12      1.7674   0.4589   0.5743   C.3       1 1      0.0000
    15 H12A     1.6995   0.8825   1.5863   H         1 1      0.0000
    16 C13      3.2276   0.2392   0.2409   C.2       1 1      0.0000
    17 C14      4.1564   1.4103   0.3771   C.3       1 1      0.0000
    18 H14B     5.1801   1.0426   0.5091   H         1 1      0.0000
    19 H14A     3.8984   2.0151   1.2511   H         1 1      0.0000
    20 N        3.6360  -0.9402  -0.1245   N.pl3     1 1      0.0000
    21 HN       2.8852  -1.6748  -0.1309   H         1 1      0.0000
    22 C        5.0253  -1.3233  -0.5132   C.3       1 1      0.0000
    23 H1A      5.0390  -2.4053  -0.6507   H         1 1      0.0000
    24 H1C      5.2970  -0.8336  -1.4538   H         1 1      0.0000
    25 H1B      5.7323  -1.0449   0.2722   H         1 1      0.0000
    26 H10A    -0.7491   0.4932   1.2390   H         1 1      0.0000
    27 H10B    -1.0850  -1.2263   1.3093   H         1 1      0.0000
    28 H9B     -1.0295   0.4465  -1.2813   H         1 1      0.0000
    29 H5      -6.6656   0.8241   0.2790   H         1 1      0.0000
    30 H3      -2.4921   1.7264   0.8158   H         1 1      0.0000
    31 H12B     1.3919   1.2533  -0.0917   H         1 1      0.0000
    32 C15      4.1036   2.3039  -0.9086   C.3       1 1      0.0000
    33 H15A     4.4100   1.7426  -1.7966   H         1 1      0.0000
    34 H15B     3.0997   2.7066  -1.0741   H         1 1      0.0000
    35 H15C     4.7946   3.1424  -0.7807   H         1 1      0.0000
    36 O2       1.1969  -1.7069   1.4169   O.3       1 1      0.0000
    37 H21      0.6619  -2.5331   1.2862   H         1 1      0.0000
    38 H22      0.9264  -1.1729  -0.5252   H         1 1      0.0000
@<TRIPOS>BOND
     1     1     2   ar
     2     1     6   ar
     3     1    29    1
     4     2     3   ar
     5     2     7    1
     6     3     4   ar
     7     3    30    1
     8     4     5   ar
     9     4     8    1
    10     5     6   ar
    11     5     9    1
    12     6    10    1
    13     8    11    1
    14     8    12    1
    15     8    28    1
    16    11    13    1
    17    11    26    1
    18    11    27    1
    19    13    14    1
    20    14    15    1
    21    14    16    1
    22    14    31    1
    23    16    17    1
    24    16    20    2
    25    17    18    1
    26    17    19    1
    27    17    32    1
    28    20    21    1
    29    20    22    1
    30    22    23    1
    31    22    24    1
    32    22    25    1
    33    32    33    1
    34    32    34    1
    35    32    35    1
    36    13    36    1
    37    36    37    1
    38    13    38    1
@<TRIPOS>SUBSTRUCTURE
     1 1           1 GROUP             0 ****  ****    0  
@<TRIPOS>MOLECULE
Molecule Name_00001_00174
    38    38     1     0     0
SMALL
NO_CHARGES
****
Generated from the CSD

@<TRIPOS>ATOM
     1 C5      -5.0243  -0.1626  -0.8407   C.ar      1 1      0.0000
     2 C4      -3.9404   0.0934  -1.6881   C.ar      1 1      0.0000
     3 C3      -2.6322  -0.0155  -1.2045   C.ar      1 1      0.0000
     4 C8      -2.3936  -0.3805   0.1296   C.ar      1 1      0.0000
     5 C7      -3.4862  -0.6275   0.9747   C.ar      1 1      0.0000
     6 C6      -4.7953  -0.5185   0.4930   C.ar      1 1      0.0000
     7 H4      -4.1139   0.3838  -2.7193   H         1 1      0.0000
     8 C9      -0.9718  -0.5686   0.6328   C.3       1 1      0.0000
     9 H7      -3.3149  -0.8916   2.0159   H         1 1      0.0000
    10 H6      -5.6333  -0.7038   1.1573   H         1 1      0.0000
    11 C10     -0.3972   0.7863   1.1133   C.3       1 1      0.0000
    12 H9A     -0.9496  -1.2862   1.4606   H         1 1      0.0000
    13 C11      0.9809   0.6872   1.7043   C.3       1 1      0.0000
    14 C12      2.1460   1.1372   0.8068   C.3       1 1      0.0000
    15 H12A     3.0210   1.3523   1.4362   H         1 1      0.0000
    16 C13      2.5769   0.2249  -0.3218   C.2       1 1      0.0000
    17 C14      3.5828   0.7564  -1.3009   C.3       1 1      0.0000
    18 H14B     3.3661   1.8118  -1.5002   H         1 1      0.0000
    19 H14A     3.5298   0.2148  -2.2496   H         1 1      0.0000
    20 N        2.0927  -0.9796  -0.3991   N.pl3     1 1      0.0000
    21 HN       1.4346  -1.2317   0.3800   H         1 1      0.0000
    22 C        2.3860  -1.9939  -1.4541   C.3       1 1      0.0000
    23 H1A      1.9053  -2.9258  -1.1533   H         1 1      0.0000
    24 H1C      1.9725  -1.6641  -2.4126   H         1 1      0.0000
    25 H1B      3.4637  -2.1503  -1.5447   H         1 1      0.0000
    26 H10A    -0.3704   1.5029   0.2765   H         1 1      0.0000
    27 H10B    -1.0693   1.2349   1.8622   H         1 1      0.0000
    28 H9B     -0.3341  -0.9729  -0.1609   H         1 1      0.0000
    29 H5      -6.0394  -0.0749  -1.2138   H         1 1      0.0000
    30 H3      -1.7941   0.1990  -1.8640   H         1 1      0.0000
    31 H12B     1.8712   2.1075   0.3612   H         1 1      0.0000
    32 C15      5.0313   0.6410  -0.7154   C.3       1 1      0.0000
    33 H15A     5.1346   1.2184   0.2086   H         1 1      0.0000
    34 H15B     5.2983  -0.4006  -0.5127   H         1 1      0.0000
    35 H15C     5.7380   1.0418  -1.4480   H         1 1      0.0000
    36 O2       1.0110   1.4590   2.8888   O.3       1 1      0.0000
    37 H21      0.3390   1.1077   3.5299   H         1 1      0.0000
    38 H22      1.1528  -0.3525   1.9786   H         1 1      0.0000
@<TRIPOS>BOND
     1     1     2   ar
     2     1     6   ar
     3     1    29    1
     4     2     3   ar
     5     2     7    1
     6     3     4   ar
     7     3    30    1
     8     4     5   ar
     9     4     8    1
    10     5     6   ar
    11     5     9    1
    12     6    10    1
    13     8    11    1
    14     8    12    1
    15     8    28    1
    16    11    13    1
    17    11    26    1
    18    11    27    1
    19    13    14    1
    20    14    15    1
    21    14    16    1
    22    14    31    1
    23    16    17    1
    24    16    20    2
    25    17    18    1
    26    17    19    1
    27    17    32    1
    28    20    21    1
    29    20    22    1
    30    22    23    1
    31    22    24    1
    32    22    25    1
    33    32    33    1
    34    32    34    1
    35    32    35    1
    36    13    36    1
    37    36    37    1
    38    13    38    1
@<TRIPOS>SUBSTRUCTURE
     1 1           1 GROUP             0 ****  ****    0  
@<TRIPOS>MOLECULE
Molecule Name_00001_00175
    38    38     1     0     0
SMALL
NO_CHARGES
****
Generated from the CSD

@<TRIPOS>ATOM
     1 C5      -4.8582   0.3008  -0.8987   C.ar      1 1      0.0000
     2 C4      -3.7256   0.6894  -1.6231   C.ar      1 1      0.0000
     3 C3      -2.4482   0.3728  -1.1487   C.ar      1 1      0.0000
     4 C8      -2.2892  -0.3344   0.0533   C.ar      1 1      0.0000
     5 C7      -3.4299  -0.7131   0.7774   C.ar      1 1      0.0000
     6 C6      -4.7084  -0.3968   0.3049   C.ar      1 1      0.0000
     7 H4      -3.8371   1.2432  -2.5497   H         1 1      0.0000
     8 C9      -0.9040  -0.7401   0.5293   C.3       1 1      0.0000
     9 H7      -3.3196  -1.2440   1.7204   H         1 1      0.0000
    10 H6      -5.5837  -0.6874   0.8769   H         1 1      0.0000
    11 C10     -0.2720   0.4062   1.3560   C.3       1 1      0.0000
    12 H9A     -0.9598  -1.6441   1.1459   H         1 1      0.0000
    13 C11      1.0711   0.0670   1.9385   C.3       1 1      0.0000
    14 C12      2.2982   0.6500   1.2176   C.3       1 1      0.0000
    15 H12A     3.1565   0.6384   1.9043   H         1 1      0.0000
    16 C13      2.7231   0.0271  -0.0951   C.2       1 1      0.0000
    17 C14      3.7998   0.7203  -0.8781   C.3       1 1      0.0000
    18 H14B     4.2799  -0.0036  -1.5459   H         1 1      0.0000
    19 H14A     4.5665   1.1281  -0.2132   H         1 1      0.0000
    20 N        2.1727  -1.0825  -0.4912   N.pl3     1 1      0.0000
    21 HN       1.4679  -1.4789   0.1794   H         1 1      0.0000
    22 C        2.4511  -1.8132  -1.7627   C.3       1 1      0.0000
    23 H1A      1.9040  -2.7561  -1.7236   H         1 1      0.0000
    24 H1C      2.0994  -1.2236  -2.6154   H         1 1      0.0000
    25 H1B      3.5206  -2.0142  -1.8615   H         1 1      0.0000
    26 H10A    -0.1671   1.3082   0.7317   H         1 1      0.0000
    27 H10B    -0.9483   0.6944   2.1765   H         1 1      0.0000
    28 H9B     -0.2575  -0.9719  -0.3242   H         1 1      0.0000
    29 H5      -5.8494   0.5490  -1.2639   H         1 1      0.0000
    30 H3      -1.5713   0.6903  -1.7087   H         1 1      0.0000
    31 H12B     2.1005   1.7180   1.0283   H         1 1      0.0000
    32 C15      3.1909   1.8766  -1.7420   C.3       1 1      0.0000
    33 H15A     2.4572   1.4945  -2.4585   H         1 1      0.0000
    34 H15B     2.7108   2.6336  -1.1146   H         1 1      0.0000
    35 H15C     3.9978   2.3559  -2.3040   H         1 1      0.0000
    36 O2       1.0954   0.5088   3.2815   O.3       1 1      0.0000
    37 H21      0.3768   0.0527   3.7930   H         1 1      0.0000
    38 H22      1.1695  -1.0175   1.9418   H         1 1      0.0000
@<TRIPOS>BOND
     1     1     2   ar
     2     1     6   ar
     3     1    29    1
     4     2     3   ar
     5     2     7    1
     6     3     4   ar
     7     3    30    1
     8     4     5   ar
     9     4     8    1
    10     5     6   ar
    11     5     9    1
    12     6    10    1
    13     8    11    1
    14     8    12    1
    15     8    28    1
    16    11    13    1
    17    11    26    1
    18    11    27    1
    19    13    14    1
    20    14    15    1
    21    14    16    1
    22    14    31    1
    23    16    17    1
    24    16    20    2
    25    17    18    1
    26    17    19    1
    27    17    32    1
    28    20    21    1
    29    20    22    1
    30    22    23    1
    31    22    24    1
    32    22    25    1
    33    32    33    1
    34    32    34    1
    35    32    35    1
    36    13    36    1
    37    36    37    1
    38    13    38    1
@<TRIPOS>SUBSTRUCTURE
     1 1           1 GROUP             0 ****  ****    0  
@<TRIPOS>MOLECULE
Molecule Name_00001_00176
    38    38     1     0     0
SMALL
NO_CHARGES
****
Generated from the CSD

@<TRIPOS>ATOM
     1 C5      -4.7805   0.9969   0.7604   C.ar      1 1      0.0000
     2 C4      -4.7021   0.3022  -0.4520   C.ar      1 1      0.0000
     3 C3      -3.5296  -0.3802  -0.7936   C.ar      1 1      0.0000
     4 C8      -2.4243  -0.3754   0.0714   C.ar      1 1      0.0000
     5 C7      -2.5085   0.3303   1.2813   C.ar      1 1      0.0000
     6 C6      -3.6801   1.0140   1.6245   C.ar      1 1      0.0000
     7 H4      -5.5482   0.2986  -1.1315   H         1 1      0.0000
     8 C9      -1.1785  -1.1769  -0.2684   C.3       1 1      0.0000
     9 H7      -1.6519   0.3583   1.9511   H         1 1      0.0000
    10 H6      -3.7318   1.5633   2.5590   H         1 1      0.0000
    11 C10     -0.2316  -0.3320  -1.1552   C.3       1 1      0.0000
    12 H9A     -0.6516  -1.4730   0.6455   H         1 1      0.0000
    13 C11      1.0317  -1.0450  -1.5475   C.3       1 1      0.0000
    14 C12      2.3426  -0.2573  -1.3848   C.3       1 1      0.0000
    15 H12A     2.3099   0.6307  -2.0317   H         1 1      0.0000
    16 C13      2.7525   0.1754   0.0068   C.2       1 1      0.0000
    17 C14      3.9741   1.0378   0.1359   C.3       1 1      0.0000
    18 H14B     4.7315   0.6958  -0.5782   H         1 1      0.0000
    19 H14A     4.3995   0.9662   1.1410   H         1 1      0.0000
    20 N        2.0370  -0.1839   1.0316   N.pl3     1 1      0.0000
    21 HN       1.1845  -0.7471   0.7874   H         1 1      0.0000
    22 C        2.3103   0.1289   2.4652   C.3       1 1      0.0000
    23 H1A      1.4568  -0.2252   3.0449   H         1 1      0.0000
    24 H1C      3.2149  -0.3927   2.7940   H         1 1      0.0000
    25 H1B      2.4268   1.2063   2.6057   H         1 1      0.0000
    26 H10A    -0.7555  -0.0148  -2.0713   H         1 1      0.0000
    27 H10B     0.0385   0.6004  -0.6341   H         1 1      0.0000
    28 H9B     -1.4470  -2.0976  -0.7979   H         1 1      0.0000
    29 H5      -5.6881   1.5295   1.0247   H         1 1      0.0000
    30 H3      -3.4696  -0.9061  -1.7440   H         1 1      0.0000
    31 H12B     3.1589  -0.8759  -1.7927   H         1 1      0.0000
    32 C15      3.6250   2.5327  -0.1766   C.3       1 1      0.0000
    33 H15A     3.2470   2.6484  -1.1971   H         1 1      0.0000
    34 H15B     2.8796   2.9234   0.5226   H         1 1      0.0000
    35 H15C     4.5351   3.1321  -0.0808   H         1 1      0.0000
    36 O2       1.1285  -2.2287  -0.7800   O.3       1 1      0.0000
    37 H21      0.5210  -2.9180  -1.1567   H         1 1      0.0000
    38 H22      0.9421  -1.3320  -2.5942   H         1 1      0.0000
@<TRIPOS>BOND
     1     1     2   ar
     2     1     6   ar
     3     1    29    1
     4     2     3   ar
     5     2     7    1
     6     3     4   ar
     7     3    30    1
     8     4     5   ar
     9     4     8    1
    10     5     6   ar
    11     5     9    1
    12     6    10    1
    13     8    11    1
    14     8    12    1
    15     8    28    1
    16    11    13    1
    17    11    26    1
    18    11    27    1
    19    13    14    1
    20    14    15    1
    21    14    16    1
    22    14    31    1
    23    16    17    1
    24    16    20    2
    25    17    18    1
    26    17    19    1
    27    17    32    1
    28    20    21    1
    29    20    22    1
    30    22    23    1
    31    22    24    1
    32    22    25    1
    33    32    33    1
    34    32    34    1
    35    32    35    1
    36    13    36    1
    37    36    37    1
    38    13    38    1
@<TRIPOS>SUBSTRUCTURE
     1 1           1 GROUP             0 ****  ****    0  
@<TRIPOS>MOLECULE
Molecule Name_00001_00177
    38    38     1     0     0
SMALL
NO_CHARGES
****
Generated from the CSD

@<TRIPOS>ATOM
     1 C5      -4.9571   0.8180   0.6875   C.ar      1 1      0.0000
     2 C4      -4.8248   0.0333  -0.4638   C.ar      1 1      0.0000
     3 C3      -3.6012  -0.5777  -0.7581   C.ar      1 1      0.0000
     4 C8      -2.4981  -0.4110   0.0937   C.ar      1 1      0.0000
     5 C7      -2.6372   0.3840   1.2416   C.ar      1 1      0.0000
     6 C6      -3.8599   0.9965   1.5373   C.ar      1 1      0.0000
     7 H4      -5.6692  -0.0958  -1.1331   H         1 1      0.0000
     8 C9      -1.1917  -1.1341  -0.1896   C.3       1 1      0.0000
     9 H7      -1.7843   0.5373   1.8991   H         1 1      0.0000
    10 H6      -3.9544   1.6158   2.4234   H         1 1      0.0000
    11 C10     -0.3189  -0.2920  -1.1519   C.3       1 1      0.0000
    12 H9A     -0.6404  -1.3091   0.7410   H         1 1      0.0000
    13 C11      0.9976  -0.9303  -1.4949   C.3       1 1      0.0000
    14 C12      2.2401  -0.0278  -1.4098   C.3       1 1      0.0000
    15 H12A     2.1335   0.7976  -2.1279   H         1 1      0.0000
    16 C13      2.6162   0.5514  -0.0627   C.2       1 1      0.0000
    17 C14      3.7635   1.5180  -0.0165   C.3       1 1      0.0000
    18 H14B     3.6689   2.1443   0.8776   H         1 1      0.0000
    19 H14A     3.7583   2.1740  -0.8916   H         1 1      0.0000
    20 N        1.9347   0.2219   0.9947   N.pl3     1 1      0.0000
    21 HN       1.1305  -0.4271   0.8058   H         1 1      0.0000
    22 C        2.1845   0.6744   2.3950   C.3       1 1      0.0000
    23 H1A      1.3640   0.3017   3.0097   H         1 1      0.0000
    24 H1C      3.1295   0.2574   2.7578   H         1 1      0.0000
    25 H1B      2.2129   1.7657   2.4446   H         1 1      0.0000
    26 H10A    -0.8689  -0.0960  -2.0864   H         1 1      0.0000
    27 H10B    -0.1248   0.6994  -0.7123   H         1 1      0.0000
    28 H9B     -1.3851  -2.1146  -0.6384   H         1 1      0.0000
    29 H5      -5.9046   1.2953   0.9147   H         1 1      0.0000
    30 H3      -3.5003  -1.1745  -1.6620   H         1 1      0.0000
    31 H12B     3.1034  -0.6099  -1.7723   H         1 1      0.0000
    32 C15      5.1263   0.7481   0.0491   C.3       1 1      0.0000
    33 H15A     5.1873   0.1220   0.9447   H         1 1      0.0000
    34 H15B     5.2717   0.1176  -0.8332   H         1 1      0.0000
    35 H15C     5.9396   1.4787   0.0885   H         1 1      0.0000
    36 O2       1.1924  -2.0340  -0.6327   O.3       1 1      0.0000
    37 H21      0.6425  -2.7994  -0.9455   H         1 1      0.0000
    38 H22      0.9296  -1.3098  -2.5133   H         1 1      0.0000
@<TRIPOS>BOND
     1     1     2   ar
     2     1     6   ar
     3     1    29    1
     4     2     3   ar
     5     2     7    1
     6     3     4   ar
     7     3    30    1
     8     4     5   ar
     9     4     8    1
    10     5     6   ar
    11     5     9    1
    12     6    10    1
    13     8    11    1
    14     8    12    1
    15     8    28    1
    16    11    13    1
    17    11    26    1
    18    11    27    1
    19    13    14    1
    20    14    15    1
    21    14    16    1
    22    14    31    1
    23    16    17    1
    24    16    20    2
    25    17    18    1
    26    17    19    1
    27    17    32    1
    28    20    21    1
    29    20    22    1
    30    22    23    1
    31    22    24    1
    32    22    25    1
    33    32    33    1
    34    32    34    1
    35    32    35    1
    36    13    36    1
    37    36    37    1
    38    13    38    1
@<TRIPOS>SUBSTRUCTURE
     1 1           1 GROUP             0 ****  ****    0  
@<TRIPOS>MOLECULE
Molecule Name_00001_00178
    38    38     1     0     0
SMALL
NO_CHARGES
****
Generated from the CSD

@<TRIPOS>ATOM
     1 C5      -5.6498   0.8178  -0.0789   C.ar      1 1      0.0000
     2 C4      -5.0766   0.3358  -1.2611   C.ar      1 1      0.0000
     3 C3      -3.7966  -0.2284  -1.2396   C.ar      1 1      0.0000
     4 C8      -3.0766  -0.3165  -0.0379   C.ar      1 1      0.0000
     5 C7      -3.6554   0.1766   1.1414   C.ar      1 1      0.0000
     6 C6      -4.9352   0.7419   1.1218   C.ar      1 1      0.0000
     7 H4      -5.6217   0.4060  -2.1969   H         1 1      0.0000
     8 C9      -1.7171  -0.9950  -0.0042   C.3       1 1      0.0000
     9 H7      -3.0997   0.1324   2.0754   H         1 1      0.0000
    10 H6      -5.3703   1.1275   2.0381   H         1 1      0.0000
    11 C10     -0.6253   0.0276   0.3948   C.3       1 1      0.0000
    12 H9A     -1.7190  -1.8225   0.7140   H         1 1      0.0000
    13 C11      0.7758  -0.4386   0.1158   C.3       1 1      0.0000
    14 C12      1.9059   0.5524   0.4417   C.3       1 1      0.0000
    15 H12A     1.8897   0.7732   1.5183   H         1 1      0.0000
    16 C13      3.3201   0.1841   0.0467   C.2       1 1      0.0000
    17 C14      3.9076   0.8670  -1.1540   C.3       1 1      0.0000
    18 H14B     3.1328   0.9720  -1.9215   H         1 1      0.0000
    19 H14A     4.7263   0.2784  -1.5776   H         1 1      0.0000
    20 N        3.9848  -0.6790   0.7569   N.pl3     1 1      0.0000
    21 HN       3.4651  -1.0407   1.5951   H         1 1      0.0000
    22 C        5.3687  -1.1735   0.4957   C.3       1 1      0.0000
    23 H1A      5.6574  -1.7975   1.3426   H         1 1      0.0000
    24 H1C      5.3829  -1.7736  -0.4198   H         1 1      0.0000
    25 H1B      6.0634  -0.3349   0.4050   H         1 1      0.0000
    26 H10A    -0.7904   0.9810  -0.1327   H         1 1      0.0000
    27 H10B    -0.7090   0.2672   1.4669   H         1 1      0.0000
    28 H9B     -1.4758  -1.4202  -0.9846   H         1 1      0.0000
    29 H5      -6.6410   1.2589  -0.0951   H         1 1      0.0000
    30 H3      -3.3505  -0.5881  -2.1642   H         1 1      0.0000
    31 H12B     1.6644   1.5101  -0.0483   H         1 1      0.0000
    32 C15      4.4343   2.2918  -0.7709   C.3       1 1      0.0000
    33 H15A     3.6267   2.9268  -0.3936   H         1 1      0.0000
    34 H15B     5.2227   2.2361  -0.0142   H         1 1      0.0000
    35 H15C     4.8487   2.7643  -1.6663   H         1 1      0.0000
    36 O2       1.0020  -1.6252   0.8508   O.3       1 1      0.0000
    37 H21      0.4413  -2.3561   0.4801   H         1 1      0.0000
    38 H22      0.8416  -0.6839  -0.9432   H         1 1      0.0000
@<TRIPOS>BOND
     1     1     2   ar
     2     1     6   ar
     3     1    29    1
     4     2     3   ar
     5     2     7    1
     6     3     4   ar
     7     3    30    1
     8     4     5   ar
     9     4     8    1
    10     5     6   ar
    11     5     9    1
    12     6    10    1
    13     8    11    1
    14     8    12    1
    15     8    28    1
    16    11    13    1
    17    11    26    1
    18    11    27    1
    19    13    14    1
    20    14    15    1
    21    14    16    1
    22    14    31    1
    23    16    17    1
    24    16    20    2
    25    17    18    1
    26    17    19    1
    27    17    32    1
    28    20    21    1
    29    20    22    1
    30    22    23    1
    31    22    24    1
    32    22    25    1
    33    32    33    1
    34    32    34    1
    35    32    35    1
    36    13    36    1
    37    36    37    1
    38    13    38    1
@<TRIPOS>SUBSTRUCTURE
     1 1           1 GROUP             0 ****  ****    0  
@<TRIPOS>MOLECULE
Molecule Name_00001_00179
    38    38     1     0     0
SMALL
NO_CHARGES
****
Generated from the CSD

@<TRIPOS>ATOM
     1 C5      -5.6154   0.7790  -0.0212   C.ar      1 1      0.0000
     2 C4      -4.9758   0.6028  -1.2535   C.ar      1 1      0.0000
     3 C3      -3.6766   0.0861  -1.3007   C.ar      1 1      0.0000
     4 C8      -3.0036  -0.2595  -0.1184   C.ar      1 1      0.0000
     5 C7      -3.6491  -0.0720   1.1133   C.ar      1 1      0.0000
     6 C6      -4.9483   0.4453   1.1626   C.ar      1 1      0.0000
     7 H4      -5.4843   0.8740  -2.1730   H         1 1      0.0000
     8 C9      -1.6210  -0.8880  -0.1763   C.3       1 1      0.0000
     9 H7      -3.1309  -0.3172   2.0377   H         1 1      0.0000
    10 H6      -5.4353   0.5938   2.1209   H         1 1      0.0000
    11 C10     -0.5874   0.0441   0.5019   C.3       1 1      0.0000
    12 H9A     -1.6199  -1.8599   0.3294   H         1 1      0.0000
    13 C11      0.8411  -0.3039   0.1915   C.3       1 1      0.0000
    14 C12      1.9172   0.6156   0.7933   C.3       1 1      0.0000
    15 H12A     1.8482   0.5784   1.8897   H         1 1      0.0000
    16 C13      3.3598   0.3903   0.3935   C.2       1 1      0.0000
    17 C14      3.9687   1.3511  -0.5858   C.3       1 1      0.0000
    18 H14B     5.0586   1.3339  -0.4744   H         1 1      0.0000
    19 H14A     3.6251   2.3722  -0.3977   H         1 1      0.0000
    20 N        4.0281  -0.5955   0.9158   N.pl3     1 1      0.0000
    21 HN       3.4891  -1.1576   1.6208   H         1 1      0.0000
    22 C        5.4399  -0.9756   0.6152   C.3       1 1      0.0000
    23 H1A      5.7179  -1.7715   1.3074   H         1 1      0.0000
    24 H1C      5.5151  -1.3447  -0.4127   H         1 1      0.0000
    25 H1B      6.1043  -0.1195   0.7557   H         1 1      0.0000
    26 H10A    -0.7680   1.0891   0.2025   H         1 1      0.0000
    27 H10B    -0.7243   0.0242   1.5949   H         1 1      0.0000
    28 H9B     -1.3232  -1.0655  -1.2156   H         1 1      0.0000
    29 H5      -6.6216   1.1832   0.0167   H         1 1      0.0000
    30 H3      -3.1792  -0.0348  -2.2605   H         1 1      0.0000
    31 H12B     1.6586   1.6538   0.5275   H         1 1      0.0000
    32 C15      3.6054   0.9413  -2.0536   C.3       1 1      0.0000
    33 H15A     3.9839  -0.0571  -2.2936   H         1 1      0.0000
    34 H15B     2.5236   0.9577  -2.2166   H         1 1      0.0000
    35 H15C     4.0685   1.6552  -2.7411   H         1 1      0.0000
    36 O2       1.0834  -1.6223   0.6414   O.3       1 1      0.0000
    37 H21      0.5674  -2.2622   0.0843   H         1 1      0.0000
    38 H22      0.9599  -0.2932  -0.8910   H         1 1      0.0000
@<TRIPOS>BOND
     1     1     2   ar
     2     1     6   ar
     3     1    29    1
     4     2     3   ar
     5     2     7    1
     6     3     4   ar
     7     3    30    1
     8     4     5   ar
     9     4     8    1
    10     5     6   ar
    11     5     9    1
    12     6    10    1
    13     8    11    1
    14     8    12    1
    15     8    28    1
    16    11    13    1
    17    11    26    1
    18    11    27    1
    19    13    14    1
    20    14    15    1
    21    14    16    1
    22    14    31    1
    23    16    17    1
    24    16    20    2
    25    17    18    1
    26    17    19    1
    27    17    32    1
    28    20    21    1
    29    20    22    1
    30    22    23    1
    31    22    24    1
    32    22    25    1
    33    32    33    1
    34    32    34    1
    35    32    35    1
    36    13    36    1
    37    36    37    1
    38    13    38    1
@<TRIPOS>SUBSTRUCTURE
     1 1           1 GROUP             0 ****  ****    0  
@<TRIPOS>MOLECULE
Molecule Name_00001_00180
    38    38     1     0     0
SMALL
NO_CHARGES
****
Generated from the CSD

@<TRIPOS>ATOM
     1 C5      -5.5212   0.5792  -0.3352   C.ar      1 1      0.0000
     2 C4      -4.6520   0.6119  -1.4315   C.ar      1 1      0.0000
     3 C3      -3.3331   0.1665  -1.2932   C.ar      1 1      0.0000
     4 C8      -2.8692  -0.3155  -0.0593   C.ar      1 1      0.0000
     5 C7      -3.7450  -0.3373   1.0369   C.ar      1 1      0.0000
     6 C6      -5.0643   0.1084   0.9007   C.ar      1 1      0.0000
     7 H4      -4.9983   0.9898  -2.3881   H         1 1      0.0000
     8 C9      -1.4585  -0.8660   0.0700   C.3       1 1      0.0000
     9 H7      -3.3919  -0.6897   2.0035   H         1 1      0.0000
    10 H6      -5.7309   0.0948   1.7569   H         1 1      0.0000
    11 C10     -0.6394   0.0039   1.0545   C.3       1 1      0.0000
    12 H9A     -1.4818  -1.8998   0.4323   H         1 1      0.0000
    13 C11      0.8433  -0.2308   0.9846   C.3       1 1      0.0000
    14 C12      1.5521   0.2376  -0.2974   C.3       1 1      0.0000
    15 H12A     1.4098   1.3217  -0.4101   H         1 1      0.0000
    16 C13      3.0246  -0.0743  -0.4589   C.2       1 1      0.0000
    17 C14      3.8679   0.9165  -1.2073   C.3       1 1      0.0000
    18 H14B     3.2937   1.3088  -2.0539   H         1 1      0.0000
    19 H14A     4.7715   0.4428  -1.6013   H         1 1      0.0000
    20 N        3.5160  -1.1586   0.0646   N.pl3     1 1      0.0000
    21 HN       2.8191  -1.7346   0.5995   H         1 1      0.0000
    22 C        4.9294  -1.6306  -0.0217   C.3       1 1      0.0000
    23 H1A      5.0199  -2.5085   0.6196   H         1 1      0.0000
    24 H1C      5.1668  -1.9080  -1.0537   H         1 1      0.0000
    25 H1B      5.6140  -0.8523   0.3242   H         1 1      0.0000
    26 H10A    -0.8357   1.0720   0.8675   H         1 1      0.0000
    27 H10B    -0.9759  -0.1798   2.0873   H         1 1      0.0000
    28 H9B     -0.9602  -0.8779  -0.9056   H         1 1      0.0000
    29 H5      -6.5433   0.9279  -0.4404   H         1 1      0.0000
    30 H3      -2.6580   0.2081  -2.1452   H         1 1      0.0000
    31 H12B     1.0233  -0.2089  -1.1556   H         1 1      0.0000
    32 C15      4.2695   2.1093  -0.2744   C.3       1 1      0.0000
    33 H15A     3.3870   2.6409   0.0947   H         1 1      0.0000
    34 H15B     4.8588   1.7662   0.5813   H         1 1      0.0000
    35 H15C     4.8760   2.8148  -0.8499   H         1 1      0.0000
    36 O2       1.4465   0.4186   2.0864   O.3       1 1      0.0000
    37 H21      1.0817   0.0452   2.9311   H         1 1      0.0000
    38 H22      1.0176  -1.3005   1.0909   H         1 1      0.0000
@<TRIPOS>BOND
     1     1     2   ar
     2     1     6   ar
     3     1    29    1
     4     2     3   ar
     5     2     7    1
     6     3     4   ar
     7     3    30    1
     8     4     5   ar
     9     4     8    1
    10     5     6   ar
    11     5     9    1
    12     6    10    1
    13     8    11    1
    14     8    12    1
    15     8    28    1
    16    11    13    1
    17    11    26    1
    18    11    27    1
    19    13    14    1
    20    14    15    1
    21    14    16    1
    22    14    31    1
    23    16    17    1
    24    16    20    2
    25    17    18    1
    26    17    19    1
    27    17    32    1
    28    20    21    1
    29    20    22    1
    30    22    23    1
    31    22    24    1
    32    22    25    1
    33    32    33    1
    34    32    34    1
    35    32    35    1
    36    13    36    1
    37    36    37    1
    38    13    38    1
@<TRIPOS>SUBSTRUCTURE
     1 1           1 GROUP             0 ****  ****    0  
@<TRIPOS>MOLECULE
Molecule Name_00001_00181
    38    38     1     0     0
SMALL
NO_CHARGES
****
Generated from the CSD

@<TRIPOS>ATOM
     1 C5      -5.4815   0.6681  -0.3127   C.ar      1 1      0.0000
     2 C4      -4.5487   1.0627  -1.2784   C.ar      1 1      0.0000
     3 C3      -3.2281   0.6069  -1.2040   C.ar      1 1      0.0000
     4 C8      -2.8262  -0.2468  -0.1650   C.ar      1 1      0.0000
     5 C7      -3.7658  -0.6310   0.8037   C.ar      1 1      0.0000
     6 C6      -5.0869  -0.1757   0.7314   C.ar      1 1      0.0000
     7 H4      -4.8472   1.7287  -2.0816   H         1 1      0.0000
     8 C9      -1.4104  -0.7983  -0.1271   C.3       1 1      0.0000
     9 H7      -3.4619  -1.2761   1.6251   H         1 1      0.0000
    10 H6      -5.8036  -0.4725   1.4903   H         1 1      0.0000
    11 C10     -0.6783  -0.2897   1.1387   C.3       1 1      0.0000
    12 H9A     -1.4255  -1.8938  -0.1221   H         1 1      0.0000
    13 C11      0.8121  -0.4772   1.0959   C.3       1 1      0.0000
    14 C12      1.5834   0.3886   0.0855   C.3       1 1      0.0000
    15 H12A     1.4166   1.4491   0.3212   H         1 1      0.0000
    16 C13      3.0715   0.1578  -0.0694   C.2       1 1      0.0000
    17 C14      3.9294   1.3448  -0.3979   C.3       1 1      0.0000
    18 H14B     4.9594   1.1402  -0.0854   H         1 1      0.0000
    19 H14A     3.5847   2.2361   0.1340   H         1 1      0.0000
    20 N        3.5617  -1.0340   0.1058   N.pl3     1 1      0.0000
    21 HN       2.8507  -1.7582   0.3771   H         1 1      0.0000
    22 C        4.9909  -1.4410  -0.0341   C.3       1 1      0.0000
    23 H1A      5.0679  -2.4790   0.2924   H         1 1      0.0000
    24 H1C      5.2985  -1.3655  -1.0820   H         1 1      0.0000
    25 H1B      5.6302  -0.8123   0.5904   H         1 1      0.0000
    26 H10A    -0.8941   0.7795   1.2955   H         1 1      0.0000
    27 H10B    -1.0715  -0.8022   2.0312   H         1 1      0.0000
    28 H9B     -0.8537  -0.4881  -1.0182   H         1 1      0.0000
    29 H5      -6.5051   1.0239  -0.3673   H         1 1      0.0000
    30 H3      -2.5041   0.9289  -1.9494   H         1 1      0.0000
    31 H12B     1.1210   0.2416  -0.9045   H         1 1      0.0000
    32 C15      3.9158   1.6207  -1.9400   C.3       1 1      0.0000
    33 H15A     4.3074   0.7664  -2.5009   H         1 1      0.0000
    34 H15B     2.9059   1.8446  -2.2968   H         1 1      0.0000
    35 H15C     4.5538   2.4850  -2.1466   H         1 1      0.0000
    36 O2       1.3281  -0.2171   2.3865   O.3       1 1      0.0000
    37 H21      0.9236  -0.8479   3.0380   H         1 1      0.0000
    38 H22      1.0108  -1.5218   0.8610   H         1 1      0.0000
@<TRIPOS>BOND
     1     1     2   ar
     2     1     6   ar
     3     1    29    1
     4     2     3   ar
     5     2     7    1
     6     3     4   ar
     7     3    30    1
     8     4     5   ar
     9     4     8    1
    10     5     6   ar
    11     5     9    1
    12     6    10    1
    13     8    11    1
    14     8    12    1
    15     8    28    1
    16    11    13    1
    17    11    26    1
    18    11    27    1
    19    13    14    1
    20    14    15    1
    21    14    16    1
    22    14    31    1
    23    16    17    1
    24    16    20    2
    25    17    18    1
    26    17    19    1
    27    17    32    1
    28    20    21    1
    29    20    22    1
    30    22    23    1
    31    22    24    1
    32    22    25    1
    33    32    33    1
    34    32    34    1
    35    32    35    1
    36    13    36    1
    37    36    37    1
    38    13    38    1
@<TRIPOS>SUBSTRUCTURE
     1 1           1 GROUP             0 ****  ****    0  
@<TRIPOS>MOLECULE
Molecule Name_00001_00182
    38    38     1     0     0
SMALL
NO_CHARGES
****
Generated from the CSD

@<TRIPOS>ATOM
     1 C5      -5.6425   0.6078  -0.4531   C.ar      1 1      0.0000
     2 C4      -4.6347   1.4949  -0.0582   C.ar      1 1      0.0000
     3 C3      -3.3702   1.0083   0.2903   C.ar      1 1      0.0000
     4 C8      -3.0998  -0.3683   0.2481   C.ar      1 1      0.0000
     5 C7      -4.1183  -1.2516  -0.1411   C.ar      1 1      0.0000
     6 C6      -5.3839  -0.7669  -0.4894   C.ar      1 1      0.0000
     7 H4      -4.8355   2.5606  -0.0148   H         1 1      0.0000
     8 C9      -1.7053  -0.8879   0.5570   C.3       1 1      0.0000
     9 H7      -3.9274  -2.3223  -0.1586   H         1 1      0.0000
    10 H6      -6.1668  -1.4593  -0.7812   H         1 1      0.0000
    11 C10     -0.6422   0.1175   0.0511   C.3       1 1      0.0000
    12 H9A     -1.5810  -1.0353   1.6355   H         1 1      0.0000
    13 C11      0.7744  -0.3306   0.2760   C.3       1 1      0.0000
    14 C12      1.8799   0.6000  -0.2506   C.3       1 1      0.0000
    15 H12A     1.8050   1.5704   0.2602   H         1 1      0.0000
    16 C13      3.3152   0.1250  -0.1744   C.2       1 1      0.0000
    17 C14      4.1721   0.6732   0.9293   C.3       1 1      0.0000
    18 H14B     4.9999  -0.0193   1.1181   H         1 1      0.0000
    19 H14A     3.5991   0.7766   1.8552   H         1 1      0.0000
    20 N        3.7536  -0.7460  -1.0350   N.pl3     1 1      0.0000
    21 HN       3.0308  -1.0763  -1.7220   H         1 1      0.0000
    22 C        5.1379  -1.2975  -1.1209   C.3       1 1      0.0000
    23 H1A      5.1299  -2.0823  -1.8787   H         1 1      0.0000
    24 H1C      5.8348  -0.5086  -1.4216   H         1 1      0.0000
    25 H1B      5.4414  -1.7195  -0.1598   H         1 1      0.0000
    26 H10A    -0.7844   0.3075  -1.0251   H         1 1      0.0000
    27 H10B    -0.7843   1.0933   0.5425   H         1 1      0.0000
    28 H9B     -1.5431  -1.8599   0.0783   H         1 1      0.0000
    29 H5      -6.6246   0.9838  -0.7200   H         1 1      0.0000
    30 H3      -2.5954   1.7015   0.6105   H         1 1      0.0000
    31 H12B     1.6593   0.8182  -1.3085   H         1 1      0.0000
    32 C15      4.7627   2.0664   0.5240   C.3       1 1      0.0000
    33 H15A     5.3883   1.9887  -0.3706   H         1 1      0.0000
    34 H15B     3.9700   2.7974   0.3382   H         1 1      0.0000
    35 H15C     5.3858   2.4345   1.3443   H         1 1      0.0000
    36 O2       0.9679  -0.5055   1.6658   O.3       1 1      0.0000
    37 H21      0.4251  -1.2749   1.9813   H         1 1      0.0000
    38 H22      0.8980  -1.3007  -0.2031   H         1 1      0.0000
@<TRIPOS>BOND
     1     1     2   ar
     2     1     6   ar
     3     1    29    1
     4     2     3   ar
     5     2     7    1
     6     3     4   ar
     7     3    30    1
     8     4     5   ar
     9     4     8    1
    10     5     6   ar
    11     5     9    1
    12     6    10    1
    13     8    11    1
    14     8    12    1
    15     8    28    1
    16    11    13    1
    17    11    26    1
    18    11    27    1
    19    13    14    1
    20    14    15    1
    21    14    16    1
    22    14    31    1
    23    16    17    1
    24    16    20    2
    25    17    18    1
    26    17    19    1
    27    17    32    1
    28    20    21    1
    29    20    22    1
    30    22    23    1
    31    22    24    1
    32    22    25    1
    33    32    33    1
    34    32    34    1
    35    32    35    1
    36    13    36    1
    37    36    37    1
    38    13    38    1
@<TRIPOS>SUBSTRUCTURE
     1 1           1 GROUP             0 ****  ****    0  
@<TRIPOS>MOLECULE
Molecule Name_00001_00183
    38    38     1     0     0
SMALL
NO_CHARGES
****
Generated from the CSD

@<TRIPOS>ATOM
     1 C5      -5.5724   0.6166   0.0327   C.ar      1 1      0.0000
     2 C4      -4.9058  -0.1352   1.0068   C.ar      1 1      0.0000
     3 C3      -3.5703  -0.5047   0.8139   C.ar      1 1      0.0000
     4 C8      -2.8879  -0.1276  -0.3532   C.ar      1 1      0.0000
     5 C7      -3.5662   0.6192  -1.3284   C.ar      1 1      0.0000
     6 C6      -4.9021   0.9892  -1.1376   C.ar      1 1      0.0000
     7 H4      -5.4264  -0.4385   1.9094   H         1 1      0.0000
     8 C9      -1.4169  -0.4679  -0.5278   C.3       1 1      0.0000
     9 H7      -3.0546   0.9005  -2.2462   H         1 1      0.0000
    10 H6      -5.4197   1.5599  -1.9018   H         1 1      0.0000
    11 C10     -0.6926  -0.4005   0.8389   C.3       1 1      0.0000
    12 H9A     -1.3031  -1.4726  -0.9496   H         1 1      0.0000
    13 C11      0.7812  -0.6831   0.7607   C.3       1 1      0.0000
    14 C12      1.6452   0.3725   0.0502   C.3       1 1      0.0000
    15 H12A     1.5699   1.3237   0.5958   H         1 1      0.0000
    16 C13      3.1091   0.0647  -0.1816   C.2       1 1      0.0000
    17 C14      3.7685   0.6811  -1.3809   C.3       1 1      0.0000
    18 H14B     3.0655   0.6711  -2.2212   H         1 1      0.0000
    19 H14A     4.6558   0.1133  -1.6749   H         1 1      0.0000
    20 N        3.7511  -0.6911   0.6598   N.pl3     1 1      0.0000
    21 HN       3.1753  -1.0142   1.4769   H         1 1      0.0000
    22 C        5.1793  -1.1152   0.5692   C.3       1 1      0.0000
    23 H1A      5.4211  -1.6461   1.4910   H         1 1      0.0000
    24 H1C      5.3145  -1.7877  -0.2840   H         1 1      0.0000
    25 H1B      5.8309  -0.2440   0.4667   H         1 1      0.0000
    26 H10A    -0.8367   0.5928   1.2938   H         1 1      0.0000
    27 H10B    -1.1505  -1.1143   1.5421   H         1 1      0.0000
    28 H9B     -0.9417   0.2301  -1.2257   H         1 1      0.0000
    29 H5      -6.6093   0.9006   0.1797   H         1 1      0.0000
    30 H3      -3.0619  -1.1015   1.5680   H         1 1      0.0000
    31 H12B     1.1894   0.5726  -0.9335   H         1 1      0.0000
    32 C15      4.1748   2.1641  -1.0810   C.3       1 1      0.0000
    33 H15A     3.3003   2.7748  -0.8360   H         1 1      0.0000
    34 H15B     4.8895   2.2230  -0.2546   H         1 1      0.0000
    35 H15C     4.6450   2.5857  -1.9742   H         1 1      0.0000
    36 O2       1.2717  -0.8433   2.0772   O.3       1 1      0.0000
    37 H21      0.8021  -1.6005   2.5155   H         1 1      0.0000
    38 H22      0.9127  -1.6293   0.2378   H         1 1      0.0000
@<TRIPOS>BOND
     1     1     2   ar
     2     1     6   ar
     3     1    29    1
     4     2     3   ar
     5     2     7    1
     6     3     4   ar
     7     3    30    1
     8     4     5   ar
     9     4     8    1
    10     5     6   ar
    11     5     9    1
    12     6    10    1
    13     8    11    1
    14     8    12    1
    15     8    28    1
    16    11    13    1
    17    11    26    1
    18    11    27    1
    19    13    14    1
    20    14    15    1
    21    14    16    1
    22    14    31    1
    23    16    17    1
    24    16    20    2
    25    17    18    1
    26    17    19    1
    27    17    32    1
    28    20    21    1
    29    20    22    1
    30    22    23    1
    31    22    24    1
    32    22    25    1
    33    32    33    1
    34    32    34    1
    35    32    35    1
    36    13    36    1
    37    36    37    1
    38    13    38    1
@<TRIPOS>SUBSTRUCTURE
     1 1           1 GROUP             0 ****  ****    0  
@<TRIPOS>MOLECULE
Molecule Name_00001_00184
    38    38     1     0     0
SMALL
NO_CHARGES
****
Generated from the CSD

@<TRIPOS>ATOM
     1 C5      -5.5618   0.3523   0.3607   C.ar      1 1      0.0000
     2 C4      -4.9020  -0.8318   0.0127   C.ar      1 1      0.0000
     3 C3      -3.5376  -0.8086  -0.2957   C.ar      1 1      0.0000
     4 C8      -2.8191   0.3966  -0.2599   C.ar      1 1      0.0000
     5 C7      -3.4903   1.5805   0.0820   C.ar      1 1      0.0000
     6 C6      -4.8550   1.5595   0.3902   C.ar      1 1      0.0000
     7 H4      -5.4498  -1.7679  -0.0255   H         1 1      0.0000
     8 C9      -1.3225   0.4077  -0.5245   C.3       1 1      0.0000
     9 H7      -2.9492   2.5240   0.0939   H         1 1      0.0000
    10 H6      -5.3661   2.4821   0.6456   H         1 1      0.0000
    11 C10     -0.6775  -0.8854   0.0310   C.3       1 1      0.0000
    12 H9A     -1.1235   0.4796  -1.5995   H         1 1      0.0000
    13 C11      0.8132  -0.9470  -0.1481   C.3       1 1      0.0000
    14 C12      1.6457   0.0395   0.6883   C.3       1 1      0.0000
    15 H12A     1.4819  -0.1680   1.7552   H         1 1      0.0000
    16 C13      3.1364   0.1155   0.4356   C.2       1 1      0.0000
    17 C14      3.8185   1.4289   0.6854   C.3       1 1      0.0000
    18 H14B     4.8850   1.2510   0.8625   H         1 1      0.0000
    19 H14A     3.4059   1.9223   1.5700   H         1 1      0.0000
    20 N        3.7789  -0.9436   0.0396   N.pl3     1 1      0.0000
    21 HN       3.1820  -1.8035  -0.0488   H         1 1      0.0000
    22 C        5.2337  -1.0377  -0.2806   C.3       1 1      0.0000
    23 H1A      5.4590  -2.0882  -0.4691   H         1 1      0.0000
    24 H1C      5.4560  -0.4512  -1.1779   H         1 1      0.0000
    25 H1B      5.8338  -0.6795   0.5595   H         1 1      0.0000
    26 H10A    -0.9077  -0.9913   1.1035   H         1 1      0.0000
    27 H10B    -1.1264  -1.7671  -0.4537   H         1 1      0.0000
    28 H9B     -0.8557   1.2788  -0.0517   H         1 1      0.0000
    29 H5      -6.6208   0.3360   0.5965   H         1 1      0.0000
    30 H3      -3.0335  -1.7298  -0.5797   H         1 1      0.0000
    31 H12B     1.2312   1.0484   0.5283   H         1 1      0.0000
    32 C15      3.6640   2.3715  -0.5564   C.3       1 1      0.0000
    33 H15A     4.1165   1.9304  -1.4499   H         1 1      0.0000
    34 H15B     2.6119   2.5892  -0.7640   H         1 1      0.0000
    35 H15C     4.1762   3.3149  -0.3456   H         1 1      0.0000
    36 O2       1.2421  -2.2590   0.1586   O.3       1 1      0.0000
    37 H21      0.7983  -2.9036  -0.4526   H         1 1      0.0000
    38 H22      1.0314  -0.7612  -1.1987   H         1 1      0.0000
@<TRIPOS>BOND
     1     1     2   ar
     2     1     6   ar
     3     1    29    1
     4     2     3   ar
     5     2     7    1
     6     3     4   ar
     7     3    30    1
     8     4     5   ar
     9     4     8    1
    10     5     6   ar
    11     5     9    1
    12     6    10    1
    13     8    11    1
    14     8    12    1
    15     8    28    1
    16    11    13    1
    17    11    26    1
    18    11    27    1
    19    13    14    1
    20    14    15    1
    21    14    16    1
    22    14    31    1
    23    16    17    1
    24    16    20    2
    25    17    18    1
    26    17    19    1
    27    17    32    1
    28    20    21    1
    29    20    22    1
    30    22    23    1
    31    22    24    1
    32    22    25    1
    33    32    33    1
    34    32    34    1
    35    32    35    1
    36    13    36    1
    37    36    37    1
    38    13    38    1
@<TRIPOS>SUBSTRUCTURE
     1 1           1 GROUP             0 ****  ****    0  
@<TRIPOS>MOLECULE
Molecule Name_00001_00185
    38    38     1     0     0
SMALL
NO_CHARGES
****
Generated from the CSD

@<TRIPOS>ATOM
     1 C5      -4.8617   0.5676   1.3059   C.ar      1 1      0.0000
     2 C4      -3.8499   1.4952   1.0326   C.ar      1 1      0.0000
     3 C3      -2.7816   1.1417   0.2015   C.ar      1 1      0.0000
     4 C8      -2.7129  -0.1408  -0.3645   C.ar      1 1      0.0000
     5 C7      -3.7272  -1.0673  -0.0788   C.ar      1 1      0.0000
     6 C6      -4.7962  -0.7159   0.7527   C.ar      1 1      0.0000
     7 H4      -3.8895   2.4870   1.4713   H         1 1      0.0000
     8 C9      -1.5901  -0.4986  -1.3244   C.3       1 1      0.0000
     9 H7      -3.6751  -2.0709  -0.4951   H         1 1      0.0000
    10 H6      -5.5713  -1.4427   0.9737   H         1 1      0.0000
    11 C10     -0.2188  -0.2707  -0.6429   C.3       1 1      0.0000
    12 H9A     -1.6709  -1.5459  -1.6360   H         1 1      0.0000
    13 C11      0.9576  -0.5988  -1.5186   C.3       1 1      0.0000
    14 C12      2.2195   0.2580  -1.3212   C.3       1 1      0.0000
    15 H12A     1.9756   1.3091  -1.5310   H         1 1      0.0000
    16 C13      2.9353   0.1862   0.0108   C.2       1 1      0.0000
    17 C14      4.0729   1.1376   0.2417   C.3       1 1      0.0000
    18 H14B     4.6474   1.2413  -0.6856   H         1 1      0.0000
    19 H14A     4.7464   0.7617   1.0171   H         1 1      0.0000
    20 N        2.5393  -0.6642   0.9114   N.pl3     1 1      0.0000
    21 HN       1.7026  -1.2337   0.6300   H         1 1      0.0000
    22 C        3.1444  -0.8854   2.2579   C.3       1 1      0.0000
    23 H1A      2.5008  -1.5842   2.7940   H         1 1      0.0000
    24 H1C      4.1432  -1.3203   2.1501   H         1 1      0.0000
    25 H1B      3.2029   0.0558   2.8098   H         1 1      0.0000
    26 H10A    -0.1306   0.7772  -0.3134   H         1 1      0.0000
    27 H10B    -0.1516  -0.8739   0.2765   H         1 1      0.0000
    28 H9B     -1.6512   0.1128  -2.2314   H         1 1      0.0000
    29 H5      -5.6888   0.8395   1.9533   H         1 1      0.0000
    30 H3      -1.9906   1.8622   0.0046   H         1 1      0.0000
    31 H12B     2.9440  -0.0266  -2.1019   H         1 1      0.0000
    32 C15      3.5321   2.5471   0.6600   C.3       1 1      0.0000
    33 H15A     2.8965   2.9774  -0.1201   H         1 1      0.0000
    34 H15B     2.9613   2.4954   1.5921   H         1 1      0.0000
    35 H15C     4.3831   3.2171   0.8137   H         1 1      0.0000
    36 O2       1.3042  -1.9529  -1.3051   O.3       1 1      0.0000
    37 H21      0.5328  -2.5329  -1.5389   H         1 1      0.0000
    38 H22      0.6416  -0.4943  -2.5555   H         1 1      0.0000
@<TRIPOS>BOND
     1     1     2   ar
     2     1     6   ar
     3     1    29    1
     4     2     3   ar
     5     2     7    1
     6     3     4   ar
     7     3    30    1
     8     4     5   ar
     9     4     8    1
    10     5     6   ar
    11     5     9    1
    12     6    10    1
    13     8    11    1
    14     8    12    1
    15     8    28    1
    16    11    13    1
    17    11    26    1
    18    11    27    1
    19    13    14    1
    20    14    15    1
    21    14    16    1
    22    14    31    1
    23    16    17    1
    24    16    20    2
    25    17    18    1
    26    17    19    1
    27    17    32    1
    28    20    21    1
    29    20    22    1
    30    22    23    1
    31    22    24    1
    32    22    25    1
    33    32    33    1
    34    32    34    1
    35    32    35    1
    36    13    36    1
    37    36    37    1
    38    13    38    1
@<TRIPOS>SUBSTRUCTURE
     1 1           1 GROUP             0 ****  ****    0  
@<TRIPOS>MOLECULE
Molecule Name_00001_00186
    38    38     1     0     0
SMALL
NO_CHARGES
****
Generated from the CSD

@<TRIPOS>ATOM
     1 C5      -5.0403   0.1406   1.3039   C.ar      1 1      0.0000
     2 C4      -4.0891   1.1648   1.2334   C.ar      1 1      0.0000
     3 C3      -2.9807   1.0343   0.3899   C.ar      1 1      0.0000
     4 C8      -2.8111  -0.1196  -0.3910   C.ar      1 1      0.0000
     5 C7      -3.7653  -1.1451  -0.3082   C.ar      1 1      0.0000
     6 C6      -4.8742  -1.0168   0.5354   C.ar      1 1      0.0000
     7 H4      -4.2067   2.0578   1.8387   H         1 1      0.0000
     8 C9      -1.6454  -0.2277  -1.3601   C.3       1 1      0.0000
     9 H7      -3.6348  -2.0529  -0.8931   H         1 1      0.0000
    10 H6      -5.6020  -1.8194   0.5980   H         1 1      0.0000
    11 C10     -0.3085  -0.0379  -0.6027   C.3       1 1      0.0000
    12 H9A     -1.6467  -1.2056  -1.8543   H         1 1      0.0000
    13 C11      0.9069  -0.1286  -1.4819   C.3       1 1      0.0000
    14 C12      2.1019   0.7581  -1.0935   C.3       1 1      0.0000
    15 H12A     1.7909   1.8120  -1.1225   H         1 1      0.0000
    16 C13      2.7912   0.4956   0.2285   C.2       1 1      0.0000
    17 C14      3.8552   1.4614   0.6625   C.3       1 1      0.0000
    18 H14B     3.9682   1.4050   1.7508   H         1 1      0.0000
    19 H14A     3.5813   2.4881   0.4032   H         1 1      0.0000
    20 N        2.4350  -0.5254   0.9509   N.pl3     1 1      0.0000
    21 HN       1.6461  -1.0878   0.5449   H         1 1      0.0000
    22 C        3.0238  -0.9441   2.2570   C.3       1 1      0.0000
    23 H1A      2.4182  -1.7671   2.6390   H         1 1      0.0000
    24 H1C      4.0525  -1.2880   2.1082   H         1 1      0.0000
    25 H1B      3.0050  -0.1147   2.9681   H         1 1      0.0000
    26 H10A    -0.3002   0.9378  -0.0906   H         1 1      0.0000
    27 H10B    -0.2202  -0.7900   0.1975   H         1 1      0.0000
    28 H9B     -1.7283   0.5305  -2.1465   H         1 1      0.0000
    29 H5      -5.8984   0.2392   1.9606   H         1 1      0.0000
    30 H3      -2.2372   1.8274   0.3504   H         1 1      0.0000
    31 H12B     2.8616   0.6643  -1.8870   H         1 1      0.0000
    32 C15      5.2259   1.1033  -0.0061   C.3       1 1      0.0000
    33 H15A     5.5572   0.0995   0.2776   H         1 1      0.0000
    34 H15B     5.1651   1.1600  -1.0971   H         1 1      0.0000
    35 H15C     5.9794   1.8194   0.3348   H         1 1      0.0000
    36 O2       1.3412  -1.4741  -1.4991   O.3       1 1      0.0000
    37 H21      0.6170  -2.0512  -1.8579   H         1 1      0.0000
    38 H22      0.6076   0.1388  -2.4942   H         1 1      0.0000
@<TRIPOS>BOND
     1     1     2   ar
     2     1     6   ar
     3     1    29    1
     4     2     3   ar
     5     2     7    1
     6     3     4   ar
     7     3    30    1
     8     4     5   ar
     9     4     8    1
    10     5     6   ar
    11     5     9    1
    12     6    10    1
    13     8    11    1
    14     8    12    1
    15     8    28    1
    16    11    13    1
    17    11    26    1
    18    11    27    1
    19    13    14    1
    20    14    15    1
    21    14    16    1
    22    14    31    1
    23    16    17    1
    24    16    20    2
    25    17    18    1
    26    17    19    1
    27    17    32    1
    28    20    21    1
    29    20    22    1
    30    22    23    1
    31    22    24    1
    32    22    25    1
    33    32    33    1
    34    32    34    1
    35    32    35    1
    36    13    36    1
    37    36    37    1
    38    13    38    1
@<TRIPOS>SUBSTRUCTURE
     1 1           1 GROUP             0 ****  ****    0  
@<TRIPOS>MOLECULE
Molecule Name_00001_00187
    38    38     1     0     0
SMALL
NO_CHARGES
****
Generated from the CSD

@<TRIPOS>ATOM
     1 C5      -5.5842   0.5346   0.1188   C.ar      1 1      0.0000
     2 C4      -4.6423   1.3577   0.7465   C.ar      1 1      0.0000
     3 C3      -3.2978   0.9738   0.7939   C.ar      1 1      0.0000
     4 C8      -2.8810  -0.2353   0.2156   C.ar      1 1      0.0000
     5 C7      -3.8332  -1.0584  -0.4046   C.ar      1 1      0.0000
     6 C6      -5.1785  -0.6765  -0.4525   C.ar      1 1      0.0000
     7 H4      -4.9553   2.2909   1.2035   H         1 1      0.0000
     8 C9      -1.4095  -0.6154   0.2047   C.3       1 1      0.0000
     9 H7      -3.5262  -2.0072  -0.8389   H         1 1      0.0000
    10 H6      -5.9081  -1.3244  -0.9276   H         1 1      0.0000
    11 C10     -0.6040   0.4115  -0.6281   C.3       1 1      0.0000
    12 H9A     -1.0133  -0.6450   1.2259   H         1 1      0.0000
    13 C11      0.8682   0.1180  -0.6970   C.3       1 1      0.0000
    14 C12      1.6424   0.1788   0.6306   C.3       1 1      0.0000
    15 H12A     1.2348  -0.5756   1.3182   H         1 1      0.0000
    16 C13      3.1485   0.0308   0.5910   C.2       1 1      0.0000
    17 C14      3.9745   1.2716   0.7675   C.3       1 1      0.0000
    18 H14B     4.9731   0.9903   1.1201   H         1 1      0.0000
    19 H14A     3.5275   1.9369   1.5117   H         1 1      0.0000
    20 N        3.6776  -1.1464   0.4322   N.pl3     1 1      0.0000
    21 HN       2.9797  -1.9290   0.3684   H         1 1      0.0000
    22 C        5.1327  -1.4667   0.3431   C.3       1 1      0.0000
    23 H1A      5.2271  -2.5534   0.3257   H         1 1      0.0000
    24 H1C      5.5495  -1.0506  -0.5797   H         1 1      0.0000
    25 H1B      5.6658  -1.0666   1.2090   H         1 1      0.0000
    26 H10A    -1.0015   0.4597  -1.6548   H         1 1      0.0000
    27 H10B    -0.7416   1.4226  -0.2126   H         1 1      0.0000
    28 H9B     -1.2744  -1.6153  -0.2221   H         1 1      0.0000
    29 H5      -6.6278   0.8296   0.0847   H         1 1      0.0000
    30 H3      -2.5729   1.6107   1.2960   H         1 1      0.0000
    31 H12B     1.4175   1.1476   1.1063   H         1 1      0.0000
    32 C15      4.1165   2.0335  -0.5939   C.3       1 1      0.0000
    33 H15A     4.6114   1.4133  -1.3477   H         1 1      0.0000
    34 H15B     3.1419   2.3477  -0.9793   H         1 1      0.0000
    35 H15C     4.7277   2.9265  -0.4331   H         1 1      0.0000
    36 O2       1.0367  -1.1729  -1.2489   O.3       1 1      0.0000
    37 H21      0.6411  -1.1978  -2.1594   H         1 1      0.0000
    38 H22      1.3202   0.8352  -1.3805   H         1 1      0.0000
@<TRIPOS>BOND
     1     1     2   ar
     2     1     6   ar
     3     1    29    1
     4     2     3   ar
     5     2     7    1
     6     3     4   ar
     7     3    30    1
     8     4     5   ar
     9     4     8    1
    10     5     6   ar
    11     5     9    1
    12     6    10    1
    13     8    11    1
    14     8    12    1
    15     8    28    1
    16    11    13    1
    17    11    26    1
    18    11    27    1
    19    13    14    1
    20    14    15    1
    21    14    16    1
    22    14    31    1
    23    16    17    1
    24    16    20    2
    25    17    18    1
    26    17    19    1
    27    17    32    1
    28    20    21    1
    29    20    22    1
    30    22    23    1
    31    22    24    1
    32    22    25    1
    33    32    33    1
    34    32    34    1
    35    32    35    1
    36    13    36    1
    37    36    37    1
    38    13    38    1
@<TRIPOS>SUBSTRUCTURE
     1 1           1 GROUP             0 ****  ****    0  
@<TRIPOS>MOLECULE
Molecule Name_00001_00188
    38    38     1     0     0
SMALL
NO_CHARGES
****
Generated from the CSD

@<TRIPOS>ATOM
     1 C5      -5.6737   0.2776   0.6206   C.ar      1 1      0.0000
     2 C4      -4.6893   1.1138   1.1592   C.ar      1 1      0.0000
     3 C3      -3.3783   1.0549   0.6742   C.ar      1 1      0.0000
     4 C8      -3.0377   0.1607  -0.3527   C.ar      1 1      0.0000
     5 C7      -4.0291  -0.6799  -0.8814   C.ar      1 1      0.0000
     6 C6      -5.3406  -0.6229  -0.3972   C.ar      1 1      0.0000
     7 H4      -4.9403   1.8034   1.9586   H         1 1      0.0000
     8 C9      -1.6307   0.1496  -0.9273   C.3       1 1      0.0000
     9 H7      -3.7734  -1.3913  -1.6635   H         1 1      0.0000
    10 H6      -6.0979  -1.2832  -0.8076   H         1 1      0.0000
    11 C10     -0.6005  -0.1007   0.2009   C.3       1 1      0.0000
    12 H9A     -1.5331  -0.6330  -1.6879   H         1 1      0.0000
    13 C11      0.8253  -0.1290  -0.2727   C.3       1 1      0.0000
    14 C12      1.9030  -0.3224   0.8074   C.3       1 1      0.0000
    15 H12A     1.7481  -1.2935   1.2985   H         1 1      0.0000
    16 C13      3.3567  -0.2157   0.3987   C.2       1 1      0.0000
    17 C14      3.7163   0.8154  -0.6311   C.3       1 1      0.0000
    18 H14B     2.9289   0.8516  -1.3922   H         1 1      0.0000
    19 H14A     4.6566   0.5609  -1.1283   H         1 1      0.0000
    20 N        4.2424  -0.9879   0.9560   N.pl3     1 1      0.0000
    21 HN       3.8549  -1.6285   1.6928   H         1 1      0.0000
    22 C        5.7034  -1.0340   0.6538   C.3       1 1      0.0000
    23 H1A      6.1651  -1.7072   1.3774   H         1 1      0.0000
    24 H1C      5.8622  -1.4225  -0.3573   H         1 1      0.0000
    25 H1B      6.1444  -0.0386   0.7465   H         1 1      0.0000
    26 H10A    -0.6975   0.6736   0.9791   H         1 1      0.0000
    27 H10B    -0.8218  -1.0541   0.7067   H         1 1      0.0000
    28 H9B     -1.4086   1.1041  -1.4171   H         1 1      0.0000
    29 H5      -6.6900   0.3198   0.9985   H         1 1      0.0000
    30 H3      -2.6143   1.6971   1.1069   H         1 1      0.0000
    31 H12B     1.7255   0.4265   1.5968   H         1 1      0.0000
    32 C15      3.8431   2.2297   0.0308   C.3       1 1      0.0000
    33 H15A     2.9002   2.5398   0.4916   H         1 1      0.0000
    34 H15B     4.6300   2.2457   0.7910   H         1 1      0.0000
    35 H15C     4.0985   2.9575  -0.7450   H         1 1      0.0000
    36 O2       0.9564  -1.1703  -1.2203   O.3       1 1      0.0000
    37 H21      0.4655  -0.9277  -2.0487   H         1 1      0.0000
    38 H22      1.0272   0.8127  -0.7811   H         1 1      0.0000
@<TRIPOS>BOND
     1     1     2   ar
     2     1     6   ar
     3     1    29    1
     4     2     3   ar
     5     2     7    1
     6     3     4   ar
     7     3    30    1
     8     4     5   ar
     9     4     8    1
    10     5     6   ar
    11     5     9    1
    12     6    10    1
    13     8    11    1
    14     8    12    1
    15     8    28    1
    16    11    13    1
    17    11    26    1
    18    11    27    1
    19    13    14    1
    20    14    15    1
    21    14    16    1
    22    14    31    1
    23    16    17    1
    24    16    20    2
    25    17    18    1
    26    17    19    1
    27    17    32    1
    28    20    21    1
    29    20    22    1
    30    22    23    1
    31    22    24    1
    32    22    25    1
    33    32    33    1
    34    32    34    1
    35    32    35    1
    36    13    36    1
    37    36    37    1
    38    13    38    1
@<TRIPOS>SUBSTRUCTURE
     1 1           1 GROUP             0 ****  ****    0  
@<TRIPOS>MOLECULE
Molecule Name_00001_00189
    38    38     1     0     0
SMALL
NO_CHARGES
****
Generated from the CSD

@<TRIPOS>ATOM
     1 C5      -5.6915  -0.0670   0.4535   C.ar      1 1      0.0000
     2 C4      -4.7775   0.3898   1.4099   C.ar      1 1      0.0000
     3 C3      -3.4403   0.5999   1.0565   C.ar      1 1      0.0000
     4 C8      -3.0028   0.3557  -0.2546   C.ar      1 1      0.0000
     5 C7      -3.9239  -0.1099  -1.2052   C.ar      1 1      0.0000
     6 C6      -5.2616  -0.3212  -0.8535   C.ar      1 1      0.0000
     7 H4      -5.1038   0.5743   2.4283   H         1 1      0.0000
     8 C9      -1.5669   0.6536  -0.6541   C.3       1 1      0.0000
     9 H7      -3.5930  -0.3219  -2.2195   H         1 1      0.0000
    10 H6      -5.9641  -0.6892  -1.5944   H         1 1      0.0000
    11 C10     -0.5908  -0.1244   0.2618   C.3       1 1      0.0000
    12 H9A     -1.3917   0.3676  -1.6971   H         1 1      0.0000
    13 C11      0.8590   0.1075  -0.0581   C.3       1 1      0.0000
    14 C12      1.8825  -0.5965   0.8487   C.3       1 1      0.0000
    15 H12A     1.7468  -1.6841   0.7655   H         1 1      0.0000
    16 C13      3.3501  -0.2781   0.6574   C.2       1 1      0.0000
    17 C14      3.7172   1.1385   0.3239   C.3       1 1      0.0000
    18 H14B     4.7591   1.3164   0.6126   H         1 1      0.0000
    19 H14A     3.0883   1.8455   0.8725   H         1 1      0.0000
    20 N        4.2389  -1.2155   0.8073   N.pl3     1 1      0.0000
    21 HN       3.8418  -2.1472   1.0860   H         1 1      0.0000
    22 C        5.7151  -1.0828   0.6304   C.3       1 1      0.0000
    23 H1A      6.1671  -2.0252   0.9426   H         1 1      0.0000
    24 H1C      5.9486  -0.8988  -0.4232   H         1 1      0.0000
    25 H1B      6.1023  -0.2686   1.2478   H         1 1      0.0000
    26 H10A    -0.7661   0.1455   1.3158   H         1 1      0.0000
    27 H10B    -0.7963  -1.2049   0.1977   H         1 1      0.0000
    28 H9B     -1.3614   1.7268  -0.5756   H         1 1      0.0000
    29 H5      -6.7281  -0.2338   0.7275   H         1 1      0.0000
    30 H3      -2.7315   0.9410   1.8078   H         1 1      0.0000
    31 H12B     1.6256  -0.3573   1.8938   H         1 1      0.0000
    32 C15      3.5694   1.3951  -1.2145   C.3       1 1      0.0000
    33 H15A     3.9015   0.5298  -1.7963   H         1 1      0.0000
    34 H15B     2.5340   1.6253  -1.4833   H         1 1      0.0000
    35 H15C     4.1948   2.2499  -1.4885   H         1 1      0.0000
    36 O2       1.0899  -0.3060  -1.3905   O.3       1 1      0.0000
    37 H21      0.6832   0.3495  -2.0157   H         1 1      0.0000
    38 H22      1.0459   1.1790  -0.0038   H         1 1      0.0000
@<TRIPOS>BOND
     1     1     2   ar
     2     1     6   ar
     3     1    29    1
     4     2     3   ar
     5     2     7    1
     6     3     4   ar
     7     3    30    1
     8     4     5   ar
     9     4     8    1
    10     5     6   ar
    11     5     9    1
    12     6    10    1
    13     8    11    1
    14     8    12    1
    15     8    28    1
    16    11    13    1
    17    11    26    1
    18    11    27    1
    19    13    14    1
    20    14    15    1
    21    14    16    1
    22    14    31    1
    23    16    17    1
    24    16    20    2
    25    17    18    1
    26    17    19    1
    27    17    32    1
    28    20    21    1
    29    20    22    1
    30    22    23    1
    31    22    24    1
    32    22    25    1
    33    32    33    1
    34    32    34    1
    35    32    35    1
    36    13    36    1
    37    36    37    1
    38    13    38    1
@<TRIPOS>SUBSTRUCTURE
     1 1           1 GROUP             0 ****  ****    0  
@<TRIPOS>MOLECULE
Molecule Name_00001_00190
    38    38     1     0     0
SMALL
NO_CHARGES
****
Generated from the CSD

@<TRIPOS>ATOM
     1 C5      -4.7571   1.4929  -0.5834   C.ar      1 1      0.0000
     2 C4      -4.5973   1.0441   0.7325   C.ar      1 1      0.0000
     3 C3      -3.5768   0.1396   1.0449   C.ar      1 1      0.0000
     4 C8      -2.7064  -0.3256   0.0469   C.ar      1 1      0.0000
     5 C7      -2.8788   0.1232  -1.2714   C.ar      1 1      0.0000
     6 C6      -3.8993   1.0273  -1.5860   C.ar      1 1      0.0000
     7 H4      -5.2697   1.3916   1.5103   H         1 1      0.0000
     8 C9      -1.5543  -1.2512   0.4017   C.3       1 1      0.0000
     9 H7      -2.2235  -0.2452  -2.0575   H         1 1      0.0000
    10 H6      -4.0288   1.3619  -2.6102   H         1 1      0.0000
    11 C10     -0.2727  -0.4235   0.6649   C.3       1 1      0.0000
    12 H9A     -1.7958  -1.8398   1.2937   H         1 1      0.0000
    13 C11      0.9256  -1.2559   1.0247   C.3       1 1      0.0000
    14 C12      2.2452  -0.4978   1.2476   C.3       1 1      0.0000
    15 H12A     2.9011  -1.1013   1.8908   H         1 1      0.0000
    16 C13      3.0343  -0.0573   0.0331   C.2       1 1      0.0000
    17 C14      2.2623   0.3622  -1.1838   C.3       1 1      0.0000
    18 H14B     1.4117  -0.3150  -1.3199   H         1 1      0.0000
    19 H14A     2.8855   0.3076  -2.0810   H         1 1      0.0000
    20 N        4.3336  -0.0314   0.0819   N.pl3     1 1      0.0000
    21 HN       4.7367  -0.3069   1.0120   H         1 1      0.0000
    22 C        5.2613   0.3473  -1.0243   C.3       1 1      0.0000
    23 H1A      6.2705   0.3690  -0.6108   H         1 1      0.0000
    24 H1C      5.2117  -0.3992  -1.8236   H         1 1      0.0000
    25 H1B      5.0051   1.3343  -1.4169   H         1 1      0.0000
    26 H10A    -0.0264   0.1830  -0.2215   H         1 1      0.0000
    27 H10B    -0.4534   0.3010   1.4750   H         1 1      0.0000
    28 H9B     -1.3678  -1.9610  -0.4117   H         1 1      0.0000
    29 H5      -5.5506   2.1915  -0.8275   H         1 1      0.0000
    30 H3      -3.4668  -0.2169   2.0668   H         1 1      0.0000
    31 H12B     2.0184   0.4041   1.8397   H         1 1      0.0000
    32 C15      1.7217   1.8226  -1.0132   C.3       1 1      0.0000
    33 H15A     1.0539   1.9018  -0.1498   H         1 1      0.0000
    34 H15B     2.5394   2.5398  -0.8943   H         1 1      0.0000
    35 H15C     1.1539   2.0925  -1.9085   H         1 1      0.0000
    36 O2       0.6255  -1.9778   2.2029   O.3       1 1      0.0000
    37 H21     -0.0809  -2.6483   2.0094   H         1 1      0.0000
    38 H22      1.0852  -1.9758   0.2233   H         1 1      0.0000
@<TRIPOS>BOND
     1     1     2   ar
     2     1     6   ar
     3     1    29    1
     4     2     3   ar
     5     2     7    1
     6     3     4   ar
     7     3    30    1
     8     4     5   ar
     9     4     8    1
    10     5     6   ar
    11     5     9    1
    12     6    10    1
    13     8    11    1
    14     8    12    1
    15     8    28    1
    16    11    13    1
    17    11    26    1
    18    11    27    1
    19    13    14    1
    20    14    15    1
    21    14    16    1
    22    14    31    1
    23    16    17    1
    24    16    20    2
    25    17    18    1
    26    17    19    1
    27    17    32    1
    28    20    21    1
    29    20    22    1
    30    22    23    1
    31    22    24    1
    32    22    25    1
    33    32    33    1
    34    32    34    1
    35    32    35    1
    36    13    36    1
    37    36    37    1
    38    13    38    1
@<TRIPOS>SUBSTRUCTURE
     1 1           1 GROUP             0 ****  ****    0  
@<TRIPOS>MOLECULE
Molecule Name_00001_00191
    38    38     1     0     0
SMALL
NO_CHARGES
****
Generated from the CSD

@<TRIPOS>ATOM
     1 C5      -4.9130   1.3811  -0.4801   C.ar      1 1      0.0000
     2 C4      -3.9836   1.1477  -1.5001   C.ar      1 1      0.0000
     3 C3      -2.8675   0.3393  -1.2592   C.ar      1 1      0.0000
     4 C8      -2.6686  -0.2436   0.0021   C.ar      1 1      0.0000
     5 C7      -3.6010   0.0021   1.0214   C.ar      1 1      0.0000
     6 C6      -4.7175   0.8110   0.7826   C.ar      1 1      0.0000
     7 H4      -4.1239   1.5998  -2.4767   H         1 1      0.0000
     8 C9      -1.4949  -1.1794   0.2401   C.3       1 1      0.0000
     9 H7      -3.4476  -0.4274   2.0089   H         1 1      0.0000
    10 H6      -5.4283   1.0011   1.5803   H         1 1      0.0000
    11 C10     -0.2420  -0.3645   0.6438   C.3       1 1      0.0000
    12 H9A     -1.7316  -1.8977   1.0330   H         1 1      0.0000
    13 C11      0.9751  -1.2075   0.9012   C.3       1 1      0.0000
    14 C12      2.2482  -0.4602   1.3325   C.3       1 1      0.0000
    15 H12A     2.9157  -1.1606   1.8542   H         1 1      0.0000
    16 C13      3.0473   0.2680   0.2729   C.2       1 1      0.0000
    17 C14      2.2855   1.0246  -0.7759   C.3       1 1      0.0000
    18 H14B     2.9380   1.7897  -1.2110   H         1 1      0.0000
    19 H14A     1.4163   1.5273  -0.3422   H         1 1      0.0000
    20 N        4.3469   0.2398   0.3112   N.pl3     1 1      0.0000
    21 HN       4.7439  -0.2893   1.1273   H         1 1      0.0000
    22 C        5.2830   0.8750  -0.6626   C.3       1 1      0.0000
    23 H1A      6.2937   0.7529  -0.2708   H         1 1      0.0000
    24 H1C      5.2062   0.3744  -1.6332   H         1 1      0.0000
    25 H1B      5.0580   1.9388  -0.7707   H         1 1      0.0000
    26 H10A    -0.0011   0.3709  -0.1408   H         1 1      0.0000
    27 H10B    -0.4554   0.2295   1.5469   H         1 1      0.0000
    28 H9B     -1.2761  -1.7583  -0.6639   H         1 1      0.0000
    29 H5      -5.7770   2.0109  -0.6649   H         1 1      0.0000
    30 H3      -2.1409   0.1735  -2.0516   H         1 1      0.0000
    31 H12B     1.9602   0.2803   2.0968   H         1 1      0.0000
    32 C15      1.8134   0.0577  -1.9146   C.3       1 1      0.0000
    33 H15A     2.6240  -0.6029  -2.2377   H         1 1      0.0000
    34 H15B     0.9657  -0.5546  -1.5927   H         1 1      0.0000
    35 H15C     1.4992   0.6566  -2.7745   H         1 1      0.0000
    36 O2       0.6552  -2.1522   1.9036   O.3       1 1      0.0000
    37 H21      0.1225  -2.8896   1.5056   H         1 1      0.0000
    38 H22      1.2021  -1.7543  -0.0128   H         1 1      0.0000
@<TRIPOS>BOND
     1     1     2   ar
     2     1     6   ar
     3     1    29    1
     4     2     3   ar
     5     2     7    1
     6     3     4   ar
     7     3    30    1
     8     4     5   ar
     9     4     8    1
    10     5     6   ar
    11     5     9    1
    12     6    10    1
    13     8    11    1
    14     8    12    1
    15     8    28    1
    16    11    13    1
    17    11    26    1
    18    11    27    1
    19    13    14    1
    20    14    15    1
    21    14    16    1
    22    14    31    1
    23    16    17    1
    24    16    20    2
    25    17    18    1
    26    17    19    1
    27    17    32    1
    28    20    21    1
    29    20    22    1
    30    22    23    1
    31    22    24    1
    32    22    25    1
    33    32    33    1
    34    32    34    1
    35    32    35    1
    36    13    36    1
    37    36    37    1
    38    13    38    1
@<TRIPOS>SUBSTRUCTURE
     1 1           1 GROUP             0 ****  ****    0  
@<TRIPOS>MOLECULE
Molecule Name_00001_00192
    38    38     1     0     0
SMALL
NO_CHARGES
****
Generated from the CSD

@<TRIPOS>ATOM
     1 C5      -4.7607   1.0569   0.8639   C.ar      1 1      0.0000
     2 C4      -3.5940   1.8238   0.9592   C.ar      1 1      0.0000
     3 C3      -2.4182   1.3903   0.3373   C.ar      1 1      0.0000
     4 C8      -2.3958   0.1872  -0.3853   C.ar      1 1      0.0000
     5 C7      -3.5680  -0.5796  -0.4690   C.ar      1 1      0.0000
     6 C6      -4.7448  -0.1481   0.1529   C.ar      1 1      0.0000
     7 H4      -3.5984   2.7518   1.5219   H         1 1      0.0000
     8 C9      -1.1377  -0.2451  -1.1202   C.3       1 1      0.0000
     9 H7      -3.5584  -1.5238  -1.0091   H         1 1      0.0000
    10 H6      -5.6436  -0.7528   0.0887   H         1 1      0.0000
    11 C10     -0.2364  -1.0811  -0.1792   C.3       1 1      0.0000
    12 H9A     -1.3946  -0.8426  -2.0020   H         1 1      0.0000
    13 C11      0.9716  -1.6661  -0.8553   C.3       1 1      0.0000
    14 C12      2.0700  -0.6747  -1.2747   C.3       1 1      0.0000
    15 H12A     1.6529   0.0358  -2.0023   H         1 1      0.0000
    16 C13      2.7832   0.1072  -0.1922   C.2       1 1      0.0000
    17 C14      2.4845   1.5741  -0.0818   C.3       1 1      0.0000
    18 H14B     2.3608   1.9914  -1.0873   H         1 1      0.0000
    19 H14A     3.3065   2.1053   0.4066   H         1 1      0.0000
    20 N        3.6014  -0.5038   0.6130   N.pl3     1 1      0.0000
    21 HN       3.6778  -1.5384   0.4483   H         1 1      0.0000
    22 C        4.4029   0.1146   1.7099   C.3       1 1      0.0000
    23 H1A      4.8897  -0.6954   2.2547   H         1 1      0.0000
    24 H1C      5.1644   0.7773   1.2862   H         1 1      0.0000
    25 H1B      3.7543   0.6744   2.3882   H         1 1      0.0000
    26 H10A     0.1000  -0.4630   0.6688   H         1 1      0.0000
    27 H10B    -0.8199  -1.9012   0.2689   H         1 1      0.0000
    28 H9B     -0.5808   0.6292  -1.4748   H         1 1      0.0000
    29 H5      -5.6722   1.3903   1.3490   H         1 1      0.0000
    30 H3      -1.5107   1.9834   0.4272   H         1 1      0.0000
    31 H12B     2.8349  -1.2381  -1.8343   H         1 1      0.0000
    32 C15      1.1623   1.8047   0.7261   C.3       1 1      0.0000
    33 H15A     0.2915   1.4281   0.1807   H         1 1      0.0000
    34 H15B     1.2029   1.3188   1.7056   H         1 1      0.0000
    35 H15C     1.0290   2.8796   0.8798   H         1 1      0.0000
    36 O2       1.5462  -2.6216   0.0144   O.3       1 1      0.0000
    37 H21      0.8834  -3.3357   0.2059   H         1 1      0.0000
    38 H22      0.6339  -2.1884  -1.7492   H         1 1      0.0000
@<TRIPOS>BOND
     1     1     2   ar
     2     1     6   ar
     3     1    29    1
     4     2     3   ar
     5     2     7    1
     6     3     4   ar
     7     3    30    1
     8     4     5   ar
     9     4     8    1
    10     5     6   ar
    11     5     9    1
    12     6    10    1
    13     8    11    1
    14     8    12    1
    15     8    28    1
    16    11    13    1
    17    11    26    1
    18    11    27    1
    19    13    14    1
    20    14    15    1
    21    14    16    1
    22    14    31    1
    23    16    17    1
    24    16    20    2
    25    17    18    1
    26    17    19    1
    27    17    32    1
    28    20    21    1
    29    20    22    1
    30    22    23    1
    31    22    24    1
    32    22    25    1
    33    32    33    1
    34    32    34    1
    35    32    35    1
    36    13    36    1
    37    36    37    1
    38    13    38    1
@<TRIPOS>SUBSTRUCTURE
     1 1           1 GROUP             0 ****  ****    0  
@<TRIPOS>MOLECULE
Molecule Name_00001_00193
    38    38     1     0     0
SMALL
NO_CHARGES
****
Generated from the CSD

@<TRIPOS>ATOM
     1 C5      -4.8227  -0.4023   1.3346   C.ar      1 1      0.0000
     2 C4      -4.9173  -0.4630  -0.0604   C.ar      1 1      0.0000
     3 C3      -3.8286  -0.0850  -0.8533   C.ar      1 1      0.0000
     4 C8      -2.6353   0.3576  -0.2615   C.ar      1 1      0.0000
     5 C7      -2.5517   0.4232   1.1377   C.ar      1 1      0.0000
     6 C6      -3.6398   0.0461   1.9325   C.ar      1 1      0.0000
     7 H4      -5.8380  -0.7965  -0.5283   H         1 1      0.0000
     8 C9      -1.4302   0.6985  -1.1226   C.3       1 1      0.0000
     9 H7      -1.6395   0.7834   1.6080   H         1 1      0.0000
    10 H6      -3.5673   0.1083   3.0135   H         1 1      0.0000
    11 C10     -0.2118  -0.1519  -0.6876   C.3       1 1      0.0000
    12 H9A     -1.6474   0.5074  -2.1794   H         1 1      0.0000
    13 C11      1.0331   0.1163  -1.4855   C.3       1 1      0.0000
    14 C12      2.2945  -0.6594  -1.0699   C.3       1 1      0.0000
    15 H12A     3.0579  -0.5482  -1.8528   H         1 1      0.0000
    16 C13      2.9262  -0.3391   0.2680   C.2       1 1      0.0000
    17 C14      4.1526   0.5263   0.2692   C.3       1 1      0.0000
    18 H14B     4.7831   0.2558  -0.5851   H         1 1      0.0000
    19 H14A     4.7365   0.3767   1.1819   H         1 1      0.0000
    20 N        2.3878  -0.7928   1.3614   N.pl3     1 1      0.0000
    21 HN       1.5068  -1.3453   1.2124   H         1 1      0.0000
    22 C        2.8917  -0.5973   2.7527   C.3       1 1      0.0000
    23 H1A      2.1444  -1.0105   3.4315   H         1 1      0.0000
    24 H1C      3.8379  -1.1320   2.8844   H         1 1      0.0000
    25 H1B      3.0296   0.4661   2.9633   H         1 1      0.0000
    26 H10A     0.0090   0.0222   0.3779   H         1 1      0.0000
    27 H10B    -0.4549  -1.2237  -0.7654   H         1 1      0.0000
    28 H9B     -1.1822   1.7617  -1.0320   H         1 1      0.0000
    29 H5      -5.6678  -0.6917   1.9505   H         1 1      0.0000
    30 H3      -3.9132  -0.1205  -1.9373   H         1 1      0.0000
    31 H12B     2.0433  -1.7329  -1.0686   H         1 1      0.0000
    32 C15      3.7572   2.0372   0.1456   C.3       1 1      0.0000
    33 H15A     3.2174   2.2327  -0.7861   H         1 1      0.0000
    34 H15B     3.1361   2.3576   0.9876   H         1 1      0.0000
    35 H15C     4.6707   2.6390   0.1426   H         1 1      0.0000
    36 O2       0.7609  -0.1756  -2.8420   O.3       1 1      0.0000
    37 H21      0.1067   0.4816  -3.1972   H         1 1      0.0000
    38 H22      1.2551   1.1798  -1.4108   H         1 1      0.0000
@<TRIPOS>BOND
     1     1     2   ar
     2     1     6   ar
     3     1    29    1
     4     2     3   ar
     5     2     7    1
     6     3     4   ar
     7     3    30    1
     8     4     5   ar
     9     4     8    1
    10     5     6   ar
    11     5     9    1
    12     6    10    1
    13     8    11    1
    14     8    12    1
    15     8    28    1
    16    11    13    1
    17    11    26    1
    18    11    27    1
    19    13    14    1
    20    14    15    1
    21    14    16    1
    22    14    31    1
    23    16    17    1
    24    16    20    2
    25    17    18    1
    26    17    19    1
    27    17    32    1
    28    20    21    1
    29    20    22    1
    30    22    23    1
    31    22    24    1
    32    22    25    1
    33    32    33    1
    34    32    34    1
    35    32    35    1
    36    13    36    1
    37    36    37    1
    38    13    38    1
@<TRIPOS>SUBSTRUCTURE
     1 1           1 GROUP             0 ****  ****    0  
@<TRIPOS>MOLECULE
Molecule Name_00001_00194
    38    38     1     0     0
SMALL
NO_CHARGES
****
Generated from the CSD

@<TRIPOS>ATOM
     1 C5      -4.0158   1.1931   0.7432   C.ar      1 1      0.0000
     2 C4      -2.7058   1.5415   1.0912   C.ar      1 1      0.0000
     3 C3      -1.6587   0.6410   0.8676   C.ar      1 1      0.0000
     4 C8      -1.9094  -0.6156   0.2948   C.ar      1 1      0.0000
     5 C7      -3.2269  -0.9600  -0.0436   C.ar      1 1      0.0000
     6 C6      -4.2755  -0.0610   0.1799   C.ar      1 1      0.0000
     7 H4      -2.5021   2.5076   1.5417   H         1 1      0.0000
     8 C9      -0.7615  -1.5628  -0.0137   C.3       1 1      0.0000
     9 H7      -3.4370  -1.9385  -0.4696   H         1 1      0.0000
    10 H6      -5.2919  -0.3406  -0.0782   H         1 1      0.0000
    11 C10     -0.3117  -1.3873  -1.4847   C.3       1 1      0.0000
    12 H9A      0.0871  -1.3665   0.6511   H         1 1      0.0000
    13 C11      0.4308  -0.1070  -1.7451   C.3       1 1      0.0000
    14 C12      1.8774  -0.0359  -1.2277   C.3       1 1      0.0000
    15 H12A     2.3924   0.8028  -1.7171   H         1 1      0.0000
    16 C13      2.1016   0.0668   0.2659   C.2       1 1      0.0000
    17 C14      1.8224   1.3874   0.9224   C.3       1 1      0.0000
    18 H14B     1.6219   1.2232   1.9870   H         1 1      0.0000
    19 H14A     0.9428   1.8654   0.4819   H         1 1      0.0000
    20 N        2.4995  -0.9767   0.9323   N.pl3     1 1      0.0000
    21 HN       2.6099  -1.8446   0.3508   H         1 1      0.0000
    22 C        2.7940  -1.0438   2.3940   C.3       1 1      0.0000
    23 H1A      2.9920  -2.0881   2.6393   H         1 1      0.0000
    24 H1C      3.6794  -0.4421   2.6232   H         1 1      0.0000
    25 H1B      1.9385  -0.6874   2.9729   H         1 1      0.0000
    26 H10A     0.3274  -2.2325  -1.7873   H         1 1      0.0000
    27 H10B    -1.1871  -1.4278  -2.1524   H         1 1      0.0000
    28 H9B     -1.0664  -2.6020   0.1516   H         1 1      0.0000
    29 H5      -4.8291   1.8893   0.9196   H         1 1      0.0000
    30 H3      -0.6447   0.9118   1.1537   H         1 1      0.0000
    31 H12B     2.4048  -0.9376  -1.5802   H         1 1      0.0000
    32 C15      3.0578   2.3406   0.7833   C.3       1 1      0.0000
    33 H15A     3.9448   1.9156   1.2632   H         1 1      0.0000
    34 H15B     3.2881   2.5452  -0.2667   H         1 1      0.0000
    35 H15C     2.8255   3.2890   1.2764   H         1 1      0.0000
    36 O2       0.4484   0.1184  -3.1409   O.3       1 1      0.0000
    37 H21     -0.4835   0.1904  -3.4763   H         1 1      0.0000
    38 H22     -0.1297   0.7042  -1.2827   H         1 1      0.0000
@<TRIPOS>BOND
     1     1     2   ar
     2     1     6   ar
     3     1    29    1
     4     2     3   ar
     5     2     7    1
     6     3     4   ar
     7     3    30    1
     8     4     5   ar
     9     4     8    1
    10     5     6   ar
    11     5     9    1
    12     6    10    1
    13     8    11    1
    14     8    12    1
    15     8    28    1
    16    11    13    1
    17    11    26    1
    18    11    27    1
    19    13    14    1
    20    14    15    1
    21    14    16    1
    22    14    31    1
    23    16    17    1
    24    16    20    2
    25    17    18    1
    26    17    19    1
    27    17    32    1
    28    20    21    1
    29    20    22    1
    30    22    23    1
    31    22    24    1
    32    22    25    1
    33    32    33    1
    34    32    34    1
    35    32    35    1
    36    13    36    1
    37    36    37    1
    38    13    38    1
@<TRIPOS>SUBSTRUCTURE
     1 1           1 GROUP             0 ****  ****    0  
@<TRIPOS>MOLECULE
Molecule Name_00001_00195
    38    38     1     0     0
SMALL
NO_CHARGES
****
Generated from the CSD

@<TRIPOS>ATOM
     1 C5      -3.9436  -1.3848   1.1143   C.ar      1 1      0.0000
     2 C4      -3.0183  -0.6167   1.8302   C.ar      1 1      0.0000
     3 C3      -2.2773   0.3747   1.1780   C.ar      1 1      0.0000
     4 C8      -2.4528   0.6085  -0.1948   C.ar      1 1      0.0000
     5 C7      -3.3766  -0.1716  -0.9067   C.ar      1 1      0.0000
     6 C6      -4.1182  -1.1641  -0.2564   C.ar      1 1      0.0000
     7 H4      -2.8694  -0.7946   2.8903   H         1 1      0.0000
     8 C9      -1.7000   1.7338  -0.8855   C.3       1 1      0.0000
     9 H7      -3.5073  -0.0137  -1.9750   H         1 1      0.0000
    10 H6      -4.8243  -1.7671  -0.8180   H         1 1      0.0000
    11 C10     -0.1756   1.5509  -0.6861   C.3       1 1      0.0000
    12 H9A     -1.9269   1.7460  -1.9573   H         1 1      0.0000
    13 C11      0.4090   0.4143  -1.4765   C.3       1 1      0.0000
    14 C12      1.9339   0.2327  -1.3912   C.3       1 1      0.0000
    15 H12A     2.4247   1.1479  -1.7513   H         1 1      0.0000
    16 C13      2.5385  -0.1446  -0.0556   C.2       1 1      0.0000
    17 C14      4.0354  -0.1445   0.0556   C.3       1 1      0.0000
    18 H14B     4.4638  -0.5393  -0.8724   H         1 1      0.0000
    19 H14A     4.3668  -0.7824   0.8799   H         1 1      0.0000
    20 N        1.7615  -0.4303   0.9473   N.pl3     1 1      0.0000
    21 HN       0.7358  -0.3444   0.7375   H         1 1      0.0000
    22 C        2.1868  -0.8463   2.3162   C.3       1 1      0.0000
    23 H1A      1.2902  -0.8958   2.9355   H         1 1      0.0000
    24 H1C      2.6561  -1.8346   2.2758   H         1 1      0.0000
    25 H1B      2.8834  -0.1176   2.7379   H         1 1      0.0000
    26 H10A     0.3545   2.4779  -0.9581   H         1 1      0.0000
    27 H10B     0.0467   1.3880   0.3806   H         1 1      0.0000
    28 H9B     -2.0054   2.7050  -0.4807   H         1 1      0.0000
    29 H5      -4.5161  -2.1565   1.6183   H         1 1      0.0000
    30 H3      -1.5491   0.9585   1.7367   H         1 1      0.0000
    31 H12B     2.2202  -0.5471  -2.1161   H         1 1      0.0000
    32 C15      4.5682   1.3119   0.2773   C.3       1 1      0.0000
    33 H15A     4.3003   1.9656  -0.5586   H         1 1      0.0000
    34 H15B     4.1764   1.7439   1.2031   H         1 1      0.0000
    35 H15C     5.6594   1.2786   0.3472   H         1 1      0.0000
    36 O2      -0.2043  -0.7851  -1.0470   O.3       1 1      0.0000
    37 H21     -0.9762  -0.9918  -1.6366   H         1 1      0.0000
    38 H22      0.1488   0.5665  -2.5230   H         1 1      0.0000
@<TRIPOS>BOND
     1     1     2   ar
     2     1     6   ar
     3     1    29    1
     4     2     3   ar
     5     2     7    1
     6     3     4   ar
     7     3    30    1
     8     4     5   ar
     9     4     8    1
    10     5     6   ar
    11     5     9    1
    12     6    10    1
    13     8    11    1
    14     8    12    1
    15     8    28    1
    16    11    13    1
    17    11    26    1
    18    11    27    1
    19    13    14    1
    20    14    15    1
    21    14    16    1
    22    14    31    1
    23    16    17    1
    24    16    20    2
    25    17    18    1
    26    17    19    1
    27    17    32    1
    28    20    21    1
    29    20    22    1
    30    22    23    1
    31    22    24    1
    32    22    25    1
    33    32    33    1
    34    32    34    1
    35    32    35    1
    36    13    36    1
    37    36    37    1
    38    13    38    1
@<TRIPOS>SUBSTRUCTURE
     1 1           1 GROUP             0 ****  ****    0  
@<TRIPOS>MOLECULE
Molecule Name_00001_00196
    38    38     1     0     0
SMALL
NO_CHARGES
****
Generated from the CSD

@<TRIPOS>ATOM
     1 C5      -4.0426   0.9685  -1.0381   C.ar      1 1      0.0000
     2 C4      -3.1371   0.0957  -1.6522   C.ar      1 1      0.0000
     3 C3      -2.3287  -0.7378  -0.8718   C.ar      1 1      0.0000
     4 C8      -2.4164  -0.7078   0.5287   C.ar      1 1      0.0000
     5 C7      -3.3211   0.1760   1.1365   C.ar      1 1      0.0000
     6 C6      -4.1299   1.0109   0.3577   C.ar      1 1      0.0000
     7 H4      -3.0560   0.0701  -2.7341   H         1 1      0.0000
     8 C9      -1.5898  -1.6651   1.3715   C.3       1 1      0.0000
     9 H7      -3.3842   0.2231   2.2214   H         1 1      0.0000
    10 H6      -4.8205   1.6965   0.8381   H         1 1      0.0000
    11 C10     -0.0861  -1.4939   1.0451   C.3       1 1      0.0000
    12 H9A     -1.7533  -1.4762   2.4383   H         1 1      0.0000
    13 C11      0.5079  -0.2159   1.5666   C.3       1 1      0.0000
    14 C12      2.0187  -0.0242   1.3521   C.3       1 1      0.0000
    15 H12A     2.5580  -0.8438   1.8477   H         1 1      0.0000
    16 C13      2.5323   0.1021  -0.0664   C.2       1 1      0.0000
    17 C14      4.0194   0.1099  -0.2699   C.3       1 1      0.0000
    18 H14B     4.2423  -0.2010  -1.2967   H         1 1      0.0000
    19 H14A     4.5114  -0.5909   0.4105   H         1 1      0.0000
    20 N        1.6895   0.1752  -1.0541   N.pl3     1 1      0.0000
    21 HN       0.6810   0.1110  -0.7673   H         1 1      0.0000
    22 C        2.0211   0.3296  -2.5012   C.3       1 1      0.0000
    23 H1A      1.0887   0.2421  -3.0606   H         1 1      0.0000
    24 H1C      2.4608   1.3163  -2.6790   H         1 1      0.0000
    25 H1B      2.7143  -0.4527  -2.8200   H         1 1      0.0000
    26 H10A     0.4877  -2.3412   1.4541   H         1 1      0.0000
    27 H10B     0.0684  -1.5341  -0.0450   H         1 1      0.0000
    28 H9B     -1.8878  -2.7016   1.1787   H         1 1      0.0000
    29 H5      -4.6674   1.6180  -1.6424   H         1 1      0.0000
    30 H3      -1.6165  -1.4035  -1.3544   H         1 1      0.0000
    31 H12B     2.3223   0.8854   1.8961   H         1 1      0.0000
    32 C15      4.5960   1.5487  -0.0423   C.3       1 1      0.0000
    33 H15A     4.1639   2.2668  -0.7460   H         1 1      0.0000
    34 H15B     4.4088   1.8972   0.9778   H         1 1      0.0000
    35 H15C     5.6776   1.5220  -0.2044   H         1 1      0.0000
    36 O2      -0.1667   0.8669   0.9568   O.3       1 1      0.0000
    37 H21     -0.9089   1.1675   1.5440   H         1 1      0.0000
    38 H22      0.3140  -0.1699   2.6373   H         1 1      0.0000
@<TRIPOS>BOND
     1     1     2   ar
     2     1     6   ar
     3     1    29    1
     4     2     3   ar
     5     2     7    1
     6     3     4   ar
     7     3    30    1
     8     4     5   ar
     9     4     8    1
    10     5     6   ar
    11     5     9    1
    12     6    10    1
    13     8    11    1
    14     8    12    1
    15     8    28    1
    16    11    13    1
    17    11    26    1
    18    11    27    1
    19    13    14    1
    20    14    15    1
    21    14    16    1
    22    14    31    1
    23    16    17    1
    24    16    20    2
    25    17    18    1
    26    17    19    1
    27    17    32    1
    28    20    21    1
    29    20    22    1
    30    22    23    1
    31    22    24    1
    32    22    25    1
    33    32    33    1
    34    32    34    1
    35    32    35    1
    36    13    36    1
    37    36    37    1
    38    13    38    1
@<TRIPOS>SUBSTRUCTURE
     1 1           1 GROUP             0 ****  ****    0  
@<TRIPOS>MOLECULE
Molecule Name_00001_00197
    38    38     1     0     0
SMALL
NO_CHARGES
****
Generated from the CSD

@<TRIPOS>ATOM
     1 C5      -4.9147   0.8392  -0.6756   C.ar      1 1      0.0000
     2 C4      -4.6501  -0.4310  -1.2000   C.ar      1 1      0.0000
     3 C3      -3.4439  -1.0742  -0.9026   C.ar      1 1      0.0000
     4 C8      -2.4903  -0.4555  -0.0792   C.ar      1 1      0.0000
     5 C7      -2.7601   0.8216   0.4357   C.ar      1 1      0.0000
     6 C6      -3.9657   1.4668   0.1389   C.ar      1 1      0.0000
     7 H4      -5.3774  -0.9151  -1.8439   H         1 1      0.0000
     8 C9      -1.2129  -1.1859   0.3011   C.3       1 1      0.0000
     9 H7      -2.0208   1.3202   1.0587   H         1 1      0.0000
    10 H6      -4.1609   2.4578   0.5358   H         1 1      0.0000
    11 C10     -0.3380  -0.2851   1.2066   C.3       1 1      0.0000
    12 H9A     -1.4461  -2.1160   0.8313   H         1 1      0.0000
    13 C11      0.9523  -0.9246   1.6360   C.3       1 1      0.0000
    14 C12      2.0057  -1.1480   0.5379   C.3       1 1      0.0000
    15 H12A     1.6270  -1.8933  -0.1759   H         1 1      0.0000
    16 C13      2.5005   0.0540  -0.2379   C.2       1 1      0.0000
    17 C14      3.4714   0.9721   0.4458   C.3       1 1      0.0000
    18 H14B     3.1828   1.0804   1.4972   H         1 1      0.0000
    19 H14A     3.4605   1.9651  -0.0125   H         1 1      0.0000
    20 N        2.0985   0.2438  -1.4601   N.pl3     1 1      0.0000
    21 HN       1.4564  -0.5033  -1.8248   H         1 1      0.0000
    22 C        2.4626   1.3831  -2.3531   C.3       1 1      0.0000
    23 H1A      2.0446   1.1718  -3.3383   H         1 1      0.0000
    24 H1C      2.0308   2.3118  -1.9663   H         1 1      0.0000
    25 H1B      3.5486   1.4776  -2.4285   H         1 1      0.0000
    26 H10A    -0.1071   0.6598   0.6887   H         1 1      0.0000
    27 H10B    -0.9033   0.0044   2.1068   H         1 1      0.0000
    28 H9B     -0.6460  -1.4599  -0.5954   H         1 1      0.0000
    29 H5      -5.8483   1.3405  -0.9086   H         1 1      0.0000
    30 H3      -3.2377  -2.0552  -1.3250   H         1 1      0.0000
    31 H12B     2.8832  -1.6236   1.0062   H         1 1      0.0000
    32 C15      4.9218   0.3836   0.3791   C.3       1 1      0.0000
    33 H15A     4.9805  -0.5884   0.8786   H         1 1      0.0000
    34 H15B     5.2596   0.2701  -0.6554   H         1 1      0.0000
    35 H15C     5.6022   1.0708   0.8906   H         1 1      0.0000
    36 O2       1.5297  -0.1213   2.6463   O.3       1 1      0.0000
    37 H21      0.9065  -0.0599   3.4170   H         1 1      0.0000
    38 H22      0.7156  -1.8932   2.0739   H         1 1      0.0000
@<TRIPOS>BOND
     1     1     2   ar
     2     1     6   ar
     3     1    29    1
     4     2     3   ar
     5     2     7    1
     6     3     4   ar
     7     3    30    1
     8     4     5   ar
     9     4     8    1
    10     5     6   ar
    11     5     9    1
    12     6    10    1
    13     8    11    1
    14     8    12    1
    15     8    28    1
    16    11    13    1
    17    11    26    1
    18    11    27    1
    19    13    14    1
    20    14    15    1
    21    14    16    1
    22    14    31    1
    23    16    17    1
    24    16    20    2
    25    17    18    1
    26    17    19    1
    27    17    32    1
    28    20    21    1
    29    20    22    1
    30    22    23    1
    31    22    24    1
    32    22    25    1
    33    32    33    1
    34    32    34    1
    35    32    35    1
    36    13    36    1
    37    36    37    1
    38    13    38    1
@<TRIPOS>SUBSTRUCTURE
     1 1           1 GROUP             0 ****  ****    0  
@<TRIPOS>MOLECULE
Molecule Name_00001_00198
    38    38     1     0     0
SMALL
NO_CHARGES
****
Generated from the CSD

@<TRIPOS>ATOM
     1 C5      -4.7143   1.3681   0.4193   C.ar      1 1      0.0000
     2 C4      -4.4125   1.2626  -0.9432   C.ar      1 1      0.0000
     3 C3      -3.2482   0.6046  -1.3538   C.ar      1 1      0.0000
     4 C8      -2.3741   0.0460  -0.4083   C.ar      1 1      0.0000
     5 C7      -2.6801   0.1633   0.9560   C.ar      1 1      0.0000
     6 C6      -3.8438   0.8217   1.3687   C.ar      1 1      0.0000
     7 H4      -5.0777   1.6977  -1.6821   H         1 1      0.0000
     8 C9      -1.1481  -0.7308  -0.8593   C.3       1 1      0.0000
     9 H7      -2.0007  -0.2478   1.6994   H         1 1      0.0000
    10 H6      -4.0669   0.9138   2.4267   H         1 1      0.0000
    11 C10     -0.3573  -1.2332   0.3732   C.3       1 1      0.0000
    12 H9A     -1.4421  -1.5876  -1.4757   H         1 1      0.0000
    13 C11      0.8777  -2.0158   0.0258   C.3       1 1      0.0000
    14 C12      2.0069  -1.2403  -0.6734   C.3       1 1      0.0000
    15 H12A     1.6667  -0.9355  -1.6732   H         1 1      0.0000
    16 C13      2.5881  -0.0307   0.0271   C.2       1 1      0.0000
    17 C14      1.8029   1.2475  -0.0244   C.3       1 1      0.0000
    18 H14B     2.0828   1.8747   0.8293   H         1 1      0.0000
    19 H14A     0.7290   1.0500   0.0380   H         1 1      0.0000
    20 N        3.7180  -0.1338   0.6628   N.pl3     1 1      0.0000
    21 HN       4.1323  -1.0991   0.6541   H         1 1      0.0000
    22 C        4.4423   0.9571   1.3792   C.3       1 1      0.0000
    23 H1A      5.2910   0.5030   1.8923   H         1 1      0.0000
    24 H1C      4.8060   1.6975   0.6594   H         1 1      0.0000
    25 H1B      3.7858   1.4358   2.1099   H         1 1      0.0000
    26 H10A    -0.0666  -0.3808   1.0082   H         1 1      0.0000
    27 H10B    -1.0055  -1.8617   1.0046   H         1 1      0.0000
    28 H9B     -0.4985  -0.0991  -1.4751   H         1 1      0.0000
    29 H5      -5.6152   1.8815   0.7389   H         1 1      0.0000
    30 H3      -3.0116   0.5386  -2.4135   H         1 1      0.0000
    31 H12B     2.8343  -1.9453  -0.8576   H         1 1      0.0000
    32 C15      2.1131   2.0281  -1.3467   C.3       1 1      0.0000
    33 H15A     3.1734   2.2903  -1.4151   H         1 1      0.0000
    34 H15B     1.8360   1.4441  -2.2296   H         1 1      0.0000
    35 H15C     1.5322   2.9551  -1.3504   H         1 1      0.0000
    36 O2       1.3964  -2.5755   1.2162   O.3       1 1      0.0000
    37 H21      0.7170  -3.1740   1.6240   H         1 1      0.0000
    38 H22      0.5812  -2.8353  -0.6272   H         1 1      0.0000
@<TRIPOS>BOND
     1     1     2   ar
     2     1     6   ar
     3     1    29    1
     4     2     3   ar
     5     2     7    1
     6     3     4   ar
     7     3    30    1
     8     4     5   ar
     9     4     8    1
    10     5     6   ar
    11     5     9    1
    12     6    10    1
    13     8    11    1
    14     8    12    1
    15     8    28    1
    16    11    13    1
    17    11    26    1
    18    11    27    1
    19    13    14    1
    20    14    15    1
    21    14    16    1
    22    14    31    1
    23    16    17    1
    24    16    20    2
    25    17    18    1
    26    17    19    1
    27    17    32    1
    28    20    21    1
    29    20    22    1
    30    22    23    1
    31    22    24    1
    32    22    25    1
    33    32    33    1
    34    32    34    1
    35    32    35    1
    36    13    36    1
    37    36    37    1
    38    13    38    1
@<TRIPOS>SUBSTRUCTURE
     1 1           1 GROUP             0 ****  ****    0  
@<TRIPOS>MOLECULE
Molecule Name_00001_00199
    38    38     1     0     0
SMALL
NO_CHARGES
****
Generated from the CSD

@<TRIPOS>ATOM
     1 C5      -4.7049   0.9691  -0.7811   C.ar      1 1      0.0000
     2 C4      -4.5480  -0.3814  -1.1131   C.ar      1 1      0.0000
     3 C3      -3.3892  -1.0663  -0.7317   C.ar      1 1      0.0000
     4 C8      -2.3762  -0.4096  -0.0158   C.ar      1 1      0.0000
     5 C7      -2.5380   0.9466   0.3058   C.ar      1 1      0.0000
     6 C6      -3.6959   1.6335  -0.0753   C.ar      1 1      0.0000
     7 H4      -5.3218  -0.8965  -1.6730   H         1 1      0.0000
     8 C9      -1.1517  -1.1739   0.4599   C.3       1 1      0.0000
     9 H7      -1.7514   1.4720   0.8428   H         1 1      0.0000
    10 H6      -3.8073   2.6844   0.1716   H         1 1      0.0000
    11 C10     -0.1937  -0.2208   1.2154   C.3       1 1      0.0000
    12 H9A     -1.4456  -1.9943   1.1240   H         1 1      0.0000
    13 C11      1.0515  -0.8892   1.7262   C.3       1 1      0.0000
    14 C12      2.0642  -1.3543   0.6661   C.3       1 1      0.0000
    15 H12A     1.6285  -2.1860   0.0946   H         1 1      0.0000
    16 C13      2.6042  -0.3303  -0.3093   C.2       1 1      0.0000
    17 C14      3.6199   0.6496   0.2017   C.3       1 1      0.0000
    18 H14B     4.2426   0.9889  -0.6335   H         1 1      0.0000
    19 H14A     4.2739   0.1841   0.9445   H         1 1      0.0000
    20 N        2.2006  -0.3405  -1.5454   N.pl3     1 1      0.0000
    21 HN       1.5236  -1.1109  -1.7727   H         1 1      0.0000
    22 C        2.6063   0.6070  -2.6251   C.3       1 1      0.0000
    23 H1A      2.1713   0.2447  -3.5575   H         1 1      0.0000
    24 H1C      2.2186   1.6074  -2.4073   H         1 1      0.0000
    25 H1B      3.6947   0.6386  -2.7166   H         1 1      0.0000
    26 H10A     0.0993   0.6162   0.5613   H         1 1      0.0000
    27 H10B    -0.7185   0.2419   2.0665   H         1 1      0.0000
    28 H9B     -0.6241  -1.6209  -0.3898   H         1 1      0.0000
    29 H5      -5.6016   1.5022  -1.0796   H         1 1      0.0000
    30 H3      -3.2666  -2.1120  -1.0053   H         1 1      0.0000
    31 H12B     2.9258  -1.7939   1.1951   H         1 1      0.0000
    32 C15      2.9101   1.8925   0.8388   C.3       1 1      0.0000
    33 H15A     3.1917   2.8178   0.3267   H         1 1      0.0000
    34 H15B     1.8212   1.7894   0.8086   H         1 1      0.0000
    35 H15C     3.2197   1.9744   1.8848   H         1 1      0.0000
    36 O2       1.7074   0.0066   2.6018   O.3       1 1      0.0000
    37 H21      1.1051   0.2298   3.3591   H         1 1      0.0000
    38 H22      0.7495  -1.7609   2.3048   H         1 1      0.0000
@<TRIPOS>BOND
     1     1     2   ar
     2     1     6   ar
     3     1    29    1
     4     2     3   ar
     5     2     7    1
     6     3     4   ar
     7     3    30    1
     8     4     5   ar
     9     4     8    1
    10     5     6   ar
    11     5     9    1
    12     6    10    1
    13     8    11    1
    14     8    12    1
    15     8    28    1
    16    11    13    1
    17    11    26    1
    18    11    27    1
    19    13    14    1
    20    14    15    1
    21    14    16    1
    22    14    31    1
    23    16    17    1
    24    16    20    2
    25    17    18    1
    26    17    19    1
    27    17    32    1
    28    20    21    1
    29    20    22    1
    30    22    23    1
    31    22    24    1
    32    22    25    1
    33    32    33    1
    34    32    34    1
    35    32    35    1
    36    13    36    1
    37    36    37    1
    38    13    38    1
@<TRIPOS>SUBSTRUCTURE
     1 1           1 GROUP             0 ****  ****    0  
@<TRIPOS>MOLECULE
Molecule Name_00001_00200
    38    38     1     0     0
SMALL
NO_CHARGES
****
Generated from the CSD

@<TRIPOS>ATOM
     1 C5      -4.6656   1.4923  -0.6431   C.ar      1 1      0.0000
     2 C4      -4.1594   1.4458   0.6608   C.ar      1 1      0.0000
     3 C3      -3.1533   0.5308   0.9893   C.ar      1 1      0.0000
     4 C8      -2.6433  -0.3464   0.0196   C.ar      1 1      0.0000
     5 C7      -3.1621  -0.2986  -1.2832   C.ar      1 1      0.0000
     6 C6      -4.1688   0.6153  -1.6136   C.ar      1 1      0.0000
     7 H4      -4.5521   2.1144   1.4201   H         1 1      0.0000
     8 C9      -1.5007  -1.2889   0.3603   C.3       1 1      0.0000
     9 H7      -2.7894  -0.9868  -2.0387   H         1 1      0.0000
    10 H6      -4.5687   0.6384  -2.6222   H         1 1      0.0000
    11 C10     -0.2356  -0.4755   0.7273   C.3       1 1      0.0000
    12 H9A     -1.7740  -1.9345   1.2023   H         1 1      0.0000
    13 C11      0.9525  -1.3252   1.0808   C.3       1 1      0.0000
    14 C12      2.2572  -0.5785   1.4056   C.3       1 1      0.0000
    15 H12A     2.9702  -1.2825   1.8576   H         1 1      0.0000
    16 C13      2.9570   0.1644   0.2875   C.2       1 1      0.0000
    17 C14      2.3480   1.4546  -0.1786   C.3       1 1      0.0000
    18 H14B     3.1113   2.2403  -0.1556   H         1 1      0.0000
    19 H14A     1.5278   1.7600   0.4774   H         1 1      0.0000
    20 N        4.0581  -0.3122  -0.2142   N.pl3     1 1      0.0000
    21 HN       4.3923  -1.1982   0.2406   H         1 1      0.0000
    22 C        4.8570   0.2728  -1.3310   C.3       1 1      0.0000
    23 H1A      5.8351  -0.2102  -1.3204   H         1 1      0.0000
    24 H1C      4.3627   0.0724  -2.2870   H         1 1      0.0000
    25 H1B      4.9788   1.3496  -1.1905   H         1 1      0.0000
    26 H10A     0.0422   0.1876  -0.1078   H         1 1      0.0000
    27 H10B    -0.4527   0.1947   1.5743   H         1 1      0.0000
    28 H9B     -1.2777  -1.9444  -0.4888   H         1 1      0.0000
    29 H5      -5.4484   2.1990  -0.8981   H         1 1      0.0000
    30 H3      -2.7742   0.4895   2.0081   H         1 1      0.0000
    31 H12B     2.0368   0.1523   2.2011   H         1 1      0.0000
    32 C15      1.8161   1.3112  -1.6452   C.3       1 1      0.0000
    33 H15A     2.6380   1.1797  -2.3558   H         1 1      0.0000
    34 H15B     1.1287   0.4652  -1.7398   H         1 1      0.0000
    35 H15C     1.2773   2.2248  -1.9131   H         1 1      0.0000
    36 O2       0.6096  -2.1231   2.1967   O.3       1 1      0.0000
    37 H21     -0.0646  -2.7997   1.9251   H         1 1      0.0000
    38 H22      1.1486  -1.9909   0.2417   H         1 1      0.0000
@<TRIPOS>BOND
     1     1     2   ar
     2     1     6   ar
     3     1    29    1
     4     2     3   ar
     5     2     7    1
     6     3     4   ar
     7     3    30    1
     8     4     5   ar
     9     4     8    1
    10     5     6   ar
    11     5     9    1
    12     6    10    1
    13     8    11    1
    14     8    12    1
    15     8    28    1
    16    11    13    1
    17    11    26    1
    18    11    27    1
    19    13    14    1
    20    14    15    1
    21    14    16    1
    22    14    31    1
    23    16    17    1
    24    16    20    2
    25    17    18    1
    26    17    19    1
    27    17    32    1
    28    20    21    1
    29    20    22    1
    30    22    23    1
    31    22    24    1
    32    22    25    1
    33    32    33    1
    34    32    34    1
    35    32    35    1
    36    13    36    1
    37    36    37    1
    38    13    38    1
@<TRIPOS>SUBSTRUCTURE
     1 1           1 GROUP             0 ****  ****    0  
@<TRIPOS>MOLECULE
Molecule Name_00001_00201
    38    38     1     0     0
SMALL
NO_CHARGES
****
Generated from the CSD

@<TRIPOS>ATOM
     1 C5      -4.8337   0.9994   0.8822   C.ar      1 1      0.0000
     2 C4      -4.8175   0.7819  -0.5002   C.ar      1 1      0.0000
     3 C3      -3.8139  -0.0065  -1.0734   C.ar      1 1      0.0000
     4 C8      -2.8171  -0.5849  -0.2723   C.ar      1 1      0.0000
     5 C7      -2.8361  -0.3550   1.1118   C.ar      1 1      0.0000
     6 C6      -3.8386   0.4337   1.6869   C.ar      1 1      0.0000
     7 H4      -5.5791   1.2307  -1.1296   H         1 1      0.0000
     8 C9      -1.7708  -1.4996  -0.8875   C.3       1 1      0.0000
     9 H7      -2.0578  -0.7811   1.7409   H         1 1      0.0000
    10 H6      -3.8394   0.6118   2.7574   H         1 1      0.0000
    11 C10     -0.5789  -0.6622  -1.4122   C.3       1 1      0.0000
    12 H9A     -1.4090  -2.2214  -0.1468   H         1 1      0.0000
    13 C11      0.5973  -0.6263  -0.4776   C.3       1 1      0.0000
    14 C12      1.8352   0.1469  -0.9627   C.3       1 1      0.0000
    15 H12A     1.5625   1.2006  -1.1158   H         1 1      0.0000
    16 C13      3.0918   0.0920  -0.1203   C.2       1 1      0.0000
    17 C14      4.2825   0.8729  -0.5951   C.3       1 1      0.0000
    18 H14B     4.3491   0.7972  -1.6861   H         1 1      0.0000
    19 H14A     5.2077   0.4726  -0.1708   H         1 1      0.0000
    20 N        3.1001  -0.5968   0.9827   N.pl3     1 1      0.0000
    21 HN       2.1829  -1.0537   1.2139   H         1 1      0.0000
    22 C        4.2534  -0.7799   1.9124   C.3       1 1      0.0000
    23 H1A      3.8847  -1.3160   2.7880   H         1 1      0.0000
    24 H1C      5.0339  -1.3729   1.4249   H         1 1      0.0000
    25 H1B      4.6550   0.1891   2.2185   H         1 1      0.0000
    26 H10A    -0.2426  -1.0533  -2.3860   H         1 1      0.0000
    27 H10B    -0.9040   0.3721  -1.6079   H         1 1      0.0000
    28 H9B     -2.2022  -2.0751  -1.7138   H         1 1      0.0000
    29 H5      -5.6094   1.6137   1.3273   H         1 1      0.0000
    30 H3      -3.7982  -0.1599  -2.1502   H         1 1      0.0000
    31 H12B     2.0933  -0.2285  -1.9667   H         1 1      0.0000
    32 C15      4.1398   2.3827  -0.2021   C.3       1 1      0.0000
    33 H15A     3.2504   2.8301  -0.6566   H         1 1      0.0000
    34 H15B     4.0835   2.5092   0.8833   H         1 1      0.0000
    35 H15C     5.0175   2.9239  -0.5672   H         1 1      0.0000
    36 O2       0.1730  -0.0594   0.7463   O.3       1 1      0.0000
    37 H21     -0.1088  -0.7824   1.3659   H         1 1      0.0000
    38 H22      0.9005  -1.6539  -0.2825   H         1 1      0.0000
@<TRIPOS>BOND
     1     1     2   ar
     2     1     6   ar
     3     1    29    1
     4     2     3   ar
     5     2     7    1
     6     3     4   ar
     7     3    30    1
     8     4     5   ar
     9     4     8    1
    10     5     6   ar
    11     5     9    1
    12     6    10    1
    13     8    11    1
    14     8    12    1
    15     8    28    1
    16    11    13    1
    17    11    26    1
    18    11    27    1
    19    13    14    1
    20    14    15    1
    21    14    16    1
    22    14    31    1
    23    16    17    1
    24    16    20    2
    25    17    18    1
    26    17    19    1
    27    17    32    1
    28    20    21    1
    29    20    22    1
    30    22    23    1
    31    22    24    1
    32    22    25    1
    33    32    33    1
    34    32    34    1
    35    32    35    1
    36    13    36    1
    37    36    37    1
    38    13    38    1
@<TRIPOS>SUBSTRUCTURE
     1 1           1 GROUP             0 ****  ****    0  
@<TRIPOS>MOLECULE
Molecule Name_00001_00202
    38    38     1     0     0
SMALL
NO_CHARGES
****
Generated from the CSD

@<TRIPOS>ATOM
     1 C5      -4.9835   0.6706   0.9607   C.ar      1 1      0.0000
     2 C4      -4.9089   0.7210  -0.4359   C.ar      1 1      0.0000
     3 C3      -3.8373   0.1171  -1.1023   C.ar      1 1      0.0000
     4 C8      -2.8300  -0.5426  -0.3810   C.ar      1 1      0.0000
     5 C7      -2.9083  -0.5815   1.0195   C.ar      1 1      0.0000
     6 C6      -3.9790   0.0225   1.6878   C.ar      1 1      0.0000
     7 H4      -5.6784   1.2351  -1.0027   H         1 1      0.0000
     8 C9      -1.7060  -1.2599  -1.1104   C.3       1 1      0.0000
     9 H7      -2.1237  -1.0723   1.5910   H         1 1      0.0000
    10 H6      -4.0257  -0.0064   2.7717   H         1 1      0.0000
    11 C10     -0.5566  -0.2687  -1.4159   C.3       1 1      0.0000
    12 H9A     -1.3205  -2.0864  -0.5031   H         1 1      0.0000
    13 C11      0.5843  -0.3410  -0.4406   C.3       1 1      0.0000
    14 C12      1.7827   0.5825  -0.7173   C.3       1 1      0.0000
    15 H12A     1.4453   1.6280  -0.6818   H         1 1      0.0000
    16 C13      3.0127   0.4435   0.1541   C.2       1 1      0.0000
    17 C14      4.1632   1.3698  -0.1131   C.3       1 1      0.0000
    18 H14B     4.7767   1.4496   0.7912   H         1 1      0.0000
    19 H14A     3.8076   2.3716  -0.3706   H         1 1      0.0000
    20 N        3.0319  -0.4406   1.1076   N.pl3     1 1      0.0000
    21 HN       2.1403  -0.9868   1.2086   H         1 1      0.0000
    22 C        4.1647  -0.7280   2.0361   C.3       1 1      0.0000
    23 H1A      3.8049  -1.4417   2.7786   H         1 1      0.0000
    24 H1C      4.9981  -1.1700   1.4807   H         1 1      0.0000
    25 H1B      4.4908   0.1873   2.5359   H         1 1      0.0000
    26 H10A    -0.1642  -0.4468  -2.4302   H         1 1      0.0000
    27 H10B    -0.9436   0.7628  -1.4282   H         1 1      0.0000
    28 H9B     -2.0716  -1.6925  -2.0481   H         1 1      0.0000
    29 H5      -5.8123   1.1418   1.4787   H         1 1      0.0000
    30 H3      -3.7771   0.1722  -2.1870   H         1 1      0.0000
    31 H12B     2.0970   0.4208  -1.7616   H         1 1      0.0000
    32 C15      5.0523   0.8172  -1.2785   C.3       1 1      0.0000
    33 H15A     5.4702  -0.1633  -1.0301   H         1 1      0.0000
    34 H15B     4.4835   0.7332  -2.2095   H         1 1      0.0000
    35 H15C     5.8832   1.5095  -1.4435   H         1 1      0.0000
    36 O2       0.0844  -0.0433   0.8482   O.3       1 1      0.0000
    37 H21     -0.1681  -0.8863   1.3082   H         1 1      0.0000
    38 H22      0.9490  -1.3670  -0.4286   H         1 1      0.0000
@<TRIPOS>BOND
     1     1     2   ar
     2     1     6   ar
     3     1    29    1
     4     2     3   ar
     5     2     7    1
     6     3     4   ar
     7     3    30    1
     8     4     5   ar
     9     4     8    1
    10     5     6   ar
    11     5     9    1
    12     6    10    1
    13     8    11    1
    14     8    12    1
    15     8    28    1
    16    11    13    1
    17    11    26    1
    18    11    27    1
    19    13    14    1
    20    14    15    1
    21    14    16    1
    22    14    31    1
    23    16    17    1
    24    16    20    2
    25    17    18    1
    26    17    19    1
    27    17    32    1
    28    20    21    1
    29    20    22    1
    30    22    23    1
    31    22    24    1
    32    22    25    1
    33    32    33    1
    34    32    34    1
    35    32    35    1
    36    13    36    1
    37    36    37    1
    38    13    38    1
@<TRIPOS>SUBSTRUCTURE
     1 1           1 GROUP             0 ****  ****    0  
@<TRIPOS>MOLECULE
Molecule Name_00001_00203
    38    38     1     0     0
SMALL
NO_CHARGES
****
Generated from the CSD

@<TRIPOS>ATOM
     1 C5      -5.6456   0.0942  -0.2708   C.ar      1 1      0.0000
     2 C4      -4.8765  -0.5097  -1.2720   C.ar      1 1      0.0000
     3 C3      -3.5036  -0.6996  -1.0817   C.ar      1 1      0.0000
     4 C8      -2.8854  -0.2883   0.1094   C.ar      1 1      0.0000
     5 C7      -3.6624   0.3238   1.1046   C.ar      1 1      0.0000
     6 C6      -5.0356   0.5152   0.9160   C.ar      1 1      0.0000
     7 H4      -5.3432  -0.8245  -2.1998   H         1 1      0.0000
     8 C9      -1.4086  -0.5610   0.3432   C.3       1 1      0.0000
     9 H7      -3.1917   0.6651   2.0239   H         1 1      0.0000
    10 H6      -5.6258   0.9969   1.6888   H         1 1      0.0000
    11 C10     -0.6372   0.7754   0.4681   C.3       1 1      0.0000
    12 H9A     -1.2671  -1.1485   1.2572   H         1 1      0.0000
    13 C11      0.8377   0.6068   0.7018   C.3       1 1      0.0000
    14 C12      1.6570   0.0382  -0.4690   C.3       1 1      0.0000
    15 H12A     1.6525   0.7633  -1.2952   H         1 1      0.0000
    16 C13      3.0867  -0.3844  -0.2067   C.2       1 1      0.0000
    17 C14      3.8667   0.3941   0.8123   C.3       1 1      0.0000
    18 H14B     4.7037  -0.2176   1.1671   H         1 1      0.0000
    19 H14A     3.2424   0.6465   1.6741   H         1 1      0.0000
    20 N        3.5849  -1.4049  -0.8404   N.pl3     1 1      0.0000
    21 HN       2.9103  -1.8824  -1.4888   H         1 1      0.0000
    22 C        4.9748  -1.9367  -0.7239   C.3       1 1      0.0000
    23 H1A      5.0204  -2.8600  -1.3029   H         1 1      0.0000
    24 H1C      5.6857  -1.2133  -1.1360   H         1 1      0.0000
    25 H1B      5.2171  -2.1470   0.3207   H         1 1      0.0000
    26 H10A    -0.7823   1.3813  -0.4409   H         1 1      0.0000
    27 H10B    -1.0570   1.3758   1.2909   H         1 1      0.0000
    28 H9B     -0.9907  -1.1460  -0.4835   H         1 1      0.0000
    29 H5      -6.7098   0.2454  -0.4189   H         1 1      0.0000
    30 H3      -2.9084  -1.1564  -1.8695   H         1 1      0.0000
    31 H12B     1.1185  -0.8409  -0.8599   H         1 1      0.0000
    32 C15      4.4362   1.7090   0.1789   C.3       1 1      0.0000
    33 H15A     5.1107   1.4898  -0.6546   H         1 1      0.0000
    34 H15B     3.6331   2.3605  -0.1785   H         1 1      0.0000
    35 H15C     5.0035   2.2485   0.9430   H         1 1      0.0000
    36 O2       1.3776   1.8666   1.0493   O.3       1 1      0.0000
    37 H21      0.9373   2.1991   1.8749   H         1 1      0.0000
    38 H22      0.9669  -0.0586   1.5542   H         1 1      0.0000
@<TRIPOS>BOND
     1     1     2   ar
     2     1     6   ar
     3     1    29    1
     4     2     3   ar
     5     2     7    1
     6     3     4   ar
     7     3    30    1
     8     4     5   ar
     9     4     8    1
    10     5     6   ar
    11     5     9    1
    12     6    10    1
    13     8    11    1
    14     8    12    1
    15     8    28    1
    16    11    13    1
    17    11    26    1
    18    11    27    1
    19    13    14    1
    20    14    15    1
    21    14    16    1
    22    14    31    1
    23    16    17    1
    24    16    20    2
    25    17    18    1
    26    17    19    1
    27    17    32    1
    28    20    21    1
    29    20    22    1
    30    22    23    1
    31    22    24    1
    32    22    25    1
    33    32    33    1
    34    32    34    1
    35    32    35    1
    36    13    36    1
    37    36    37    1
    38    13    38    1
@<TRIPOS>SUBSTRUCTURE
     1 1           1 GROUP             0 ****  ****    0  
@<TRIPOS>MOLECULE
Molecule Name_00001_00204
    38    38     1     0     0
SMALL
NO_CHARGES
****
Generated from the CSD

@<TRIPOS>ATOM
     1 C5      -4.9654   0.9378   0.3724   C.ar      1 1      0.0000
     2 C4      -4.1312   1.1568  -0.7297   C.ar      1 1      0.0000
     3 C3      -2.9864   0.3727  -0.9083   C.ar      1 1      0.0000
     4 C8      -2.6634  -0.6371   0.0116   C.ar      1 1      0.0000
     5 C7      -3.5009  -0.8446   1.1181   C.ar      1 1      0.0000
     6 C6      -4.6460  -0.0610   1.2989   C.ar      1 1      0.0000
     7 H4      -4.3676   1.9400  -1.4427   H         1 1      0.0000
     8 C9      -1.4597  -1.5348  -0.2233   C.3       1 1      0.0000
     9 H7      -3.2508  -1.6106   1.8488   H         1 1      0.0000
    10 H6      -5.2825  -0.2245   2.1625   H         1 1      0.0000
    11 C10     -0.1881  -0.8804   0.3696   C.3       1 1      0.0000
    12 H9A     -1.6148  -2.5142   0.2428   H         1 1      0.0000
    13 C11      0.2659   0.3465  -0.3701   C.3       1 1      0.0000
    14 C12      1.4986   1.0715   0.1959   C.3       1 1      0.0000
    15 H12A     1.2450   1.4972   1.1771   H         1 1      0.0000
    16 C13      2.7912   0.2947   0.3273   C.2       1 1      0.0000
    17 C14      3.5754   0.0316  -0.9252   C.3       1 1      0.0000
    18 H14B     2.8811  -0.1957  -1.7418   H         1 1      0.0000
    19 H14A     4.2407  -0.8271  -0.7975   H         1 1      0.0000
    20 N        3.1931  -0.0962   1.5007   N.pl3     1 1      0.0000
    21 HN       2.5682   0.1985   2.2920   H         1 1      0.0000
    22 C        4.4200  -0.8897   1.8057   C.3       1 1      0.0000
    23 H1A      4.5121  -0.9437   2.8913   H         1 1      0.0000
    24 H1C      4.3199  -1.9010   1.3984   H         1 1      0.0000
    25 H1B      5.3040  -0.4027   1.3869   H         1 1      0.0000
    26 H10A    -0.3586  -0.6120   1.4247   H         1 1      0.0000
    27 H10B     0.6382  -1.6090   0.3821   H         1 1      0.0000
    28 H9B     -1.3133  -1.7079  -1.2951   H         1 1      0.0000
    29 H5      -5.8515   1.5478   0.5139   H         1 1      0.0000
    30 H3      -2.3340   0.5574  -1.7589   H         1 1      0.0000
    31 H12B     1.7004   1.9432  -0.4482   H         1 1      0.0000
    32 C15      4.4202   1.2912  -1.3175   C.3       1 1      0.0000
    33 H15A     3.7790   2.1576  -1.5068   H         1 1      0.0000
    34 H15B     5.1402   1.5487  -0.5349   H         1 1      0.0000
    35 H15C     4.9730   1.0699  -2.2352   H         1 1      0.0000
    36 O2       0.5433  -0.0202  -1.7072   O.3       1 1      0.0000
    37 H21     -0.3051  -0.2462  -2.1713   H         1 1      0.0000
    38 H22     -0.5616   1.0543  -0.3825   H         1 1      0.0000
@<TRIPOS>BOND
     1     1     2   ar
     2     1     6   ar
     3     1    29    1
     4     2     3   ar
     5     2     7    1
     6     3     4   ar
     7     3    30    1
     8     4     5   ar
     9     4     8    1
    10     5     6   ar
    11     5     9    1
    12     6    10    1
    13     8    11    1
    14     8    12    1
    15     8    28    1
    16    11    13    1
    17    11    26    1
    18    11    27    1
    19    13    14    1
    20    14    15    1
    21    14    16    1
    22    14    31    1
    23    16    17    1
    24    16    20    2
    25    17    18    1
    26    17    19    1
    27    17    32    1
    28    20    21    1
    29    20    22    1
    30    22    23    1
    31    22    24    1
    32    22    25    1
    33    32    33    1
    34    32    34    1
    35    32    35    1
    36    13    36    1
    37    36    37    1
    38    13    38    1
@<TRIPOS>SUBSTRUCTURE
     1 1           1 GROUP             0 ****  ****    0  
@<TRIPOS>MOLECULE
Molecule Name_00001_00205
    38    38     1     0     0
SMALL
NO_CHARGES
****
Generated from the CSD

@<TRIPOS>ATOM
     1 C5      -4.9101   0.6795  -0.7510   C.ar      1 1      0.0000
     2 C4      -4.1678  -0.4419  -1.1383   C.ar      1 1      0.0000
     3 C3      -3.0335  -0.8166  -0.4102   C.ar      1 1      0.0000
     4 C8      -2.6294  -0.0754   0.7111   C.ar      1 1      0.0000
     5 C7      -3.3747   1.0522   1.0877   C.ar      1 1      0.0000
     6 C6      -4.5091   1.4290   0.3604   C.ar      1 1      0.0000
     7 H4      -4.4672  -1.0175  -2.0083   H         1 1      0.0000
     8 C9      -1.4398  -0.5262   1.5428   C.3       1 1      0.0000
     9 H7      -3.0604   1.6466   1.9428   H         1 1      0.0000
    10 H6      -5.0737   2.3075   0.6555   H         1 1      0.0000
    11 C10     -0.1320   0.0586   0.9557   C.3       1 1      0.0000
    12 H9A     -1.5507  -0.1959   2.5816   H         1 1      0.0000
    13 C11      0.2561  -0.5309  -0.3710   C.3       1 1      0.0000
    14 C12      1.4977   0.0698  -1.0515   C.3       1 1      0.0000
    15 H12A     1.2849   1.1115  -1.3305   H         1 1      0.0000
    16 C13      2.8148   0.0302  -0.3064   C.2       1 1      0.0000
    17 C14      3.0216   1.0286   0.7951   C.3       1 1      0.0000
    18 H14B     3.7710   0.6410   1.4943   H         1 1      0.0000
    19 H14A     2.0946   1.1961   1.3508   H         1 1      0.0000
    20 N        3.7057  -0.8647  -0.6172   N.pl3     1 1      0.0000
    21 HN       3.4067  -1.5270  -1.3758   H         1 1      0.0000
    22 C        5.0586  -1.0272  -0.0078   C.3       1 1      0.0000
    23 H1A      5.4949  -1.9380  -0.4201   H         1 1      0.0000
    24 H1C      5.6894  -0.1713  -0.2686   H         1 1      0.0000
    25 H1B      4.9800  -1.1178   1.0783   H         1 1      0.0000
    26 H10A    -0.2247   1.1508   0.8418   H         1 1      0.0000
    27 H10B     0.6982  -0.0929   1.6639   H         1 1      0.0000
    28 H9B     -1.3742  -1.6196   1.5578   H         1 1      0.0000
    29 H5      -5.7879   0.9731  -1.3172   H         1 1      0.0000
    30 H3      -2.4523  -1.6806  -0.7248   H         1 1      0.0000
    31 H12B     1.6434  -0.4566  -2.0092   H         1 1      0.0000
    32 C15      3.5326   2.3899   0.2120   C.3       1 1      0.0000
    33 H15A     4.4894   2.2675  -0.3051   H         1 1      0.0000
    34 H15B     2.8079   2.8234  -0.4839   H         1 1      0.0000
    35 H15C     3.6795   3.0916   1.0383   H         1 1      0.0000
    36 O2       0.4759  -1.9162  -0.1925   O.3       1 1      0.0000
    37 H21     -0.3870  -2.3652   0.0074   H         1 1      0.0000
    38 H22     -0.5874  -0.4111  -1.0493   H         1 1      0.0000
@<TRIPOS>BOND
     1     1     2   ar
     2     1     6   ar
     3     1    29    1
     4     2     3   ar
     5     2     7    1
     6     3     4   ar
     7     3    30    1
     8     4     5   ar
     9     4     8    1
    10     5     6   ar
    11     5     9    1
    12     6    10    1
    13     8    11    1
    14     8    12    1
    15     8    28    1
    16    11    13    1
    17    11    26    1
    18    11    27    1
    19    13    14    1
    20    14    15    1
    21    14    16    1
    22    14    31    1
    23    16    17    1
    24    16    20    2
    25    17    18    1
    26    17    19    1
    27    17    32    1
    28    20    21    1
    29    20    22    1
    30    22    23    1
    31    22    24    1
    32    22    25    1
    33    32    33    1
    34    32    34    1
    35    32    35    1
    36    13    36    1
    37    36    37    1
    38    13    38    1
@<TRIPOS>SUBSTRUCTURE
     1 1           1 GROUP             0 ****  ****    0  
@<TRIPOS>MOLECULE
Molecule Name_00001_00206
    38    38     1     0     0
SMALL
NO_CHARGES
****
Generated from the CSD

@<TRIPOS>ATOM
     1 C5      -4.9447  -0.4346   0.6650   C.ar      1 1      0.0000
     2 C4      -4.1096   0.4989   1.2893   C.ar      1 1      0.0000
     3 C3      -2.9083   0.8803   0.6822   C.ar      1 1      0.0000
     4 C8      -2.5292   0.3335  -0.5537   C.ar      1 1      0.0000
     5 C7      -3.3685  -0.6079  -1.1689   C.ar      1 1      0.0000
     6 C6      -4.5700  -0.9911  -0.5629   C.ar      1 1      0.0000
     7 H4      -4.3896   0.9221   2.2486   H         1 1      0.0000
     8 C9      -1.2601   0.8031  -1.2454   C.3       1 1      0.0000
     9 H7      -3.0764  -1.0539  -2.1170   H         1 1      0.0000
    10 H6      -5.2079  -1.7260  -1.0434   H         1 1      0.0000
    11 C10     -0.0494  -0.0232  -0.7473   C.3       1 1      0.0000
    12 H9A     -1.3521   0.6934  -2.3317   H         1 1      0.0000
    13 C11      0.3276   0.2508   0.6813   C.3       1 1      0.0000
    14 C12      1.4948  -0.5720   1.2525   C.3       1 1      0.0000
    15 H12A     1.1834  -1.6224   1.3411   H         1 1      0.0000
    16 C13      2.8267  -0.5233   0.5347   C.2       1 1      0.0000
    17 C14      3.6546   0.7193   0.6874   C.3       1 1      0.0000
    18 H14B     4.7109   0.4665   0.5428   H         1 1      0.0000
    19 H14A     3.5421   1.1441   1.6890   H         1 1      0.0000
    20 N        3.2224  -1.5475  -0.1623   N.pl3     1 1      0.0000
    21 HN       2.5626  -2.3647  -0.1424   H         1 1      0.0000
    22 C        4.4854  -1.6573  -0.9500   C.3       1 1      0.0000
    23 H1A      4.5544  -2.6832  -1.3145   H         1 1      0.0000
    24 H1C      4.4538  -0.9701  -1.8016   H         1 1      0.0000
    25 H1B      5.3495  -1.4337  -0.3197   H         1 1      0.0000
    26 H10A    -0.2570  -1.1000  -0.8560   H         1 1      0.0000
    27 H10B     0.8270   0.1724  -1.3857   H         1 1      0.0000
    28 H9B     -1.0831   1.8652  -1.0430   H         1 1      0.0000
    29 H5      -5.8748  -0.7339   1.1368   H         1 1      0.0000
    30 H3      -2.2564   1.5953   1.1793   H         1 1      0.0000
    31 H12B     1.6653  -0.2380   2.2892   H         1 1      0.0000
    32 C15      3.2411   1.7879  -0.3809   C.3       1 1      0.0000
    33 H15A     4.0602   1.9924  -1.0774   H         1 1      0.0000
    34 H15B     2.3651   1.4644  -0.9511   H         1 1      0.0000
    35 H15C     2.9920   2.7201   0.1346   H         1 1      0.0000
    36 O2       0.6538   1.6217   0.7979   O.3       1 1      0.0000
    37 H21      0.1284   2.0253   1.5376   H         1 1      0.0000
    38 H22     -0.5484   0.0621   1.3001   H         1 1      0.0000
@<TRIPOS>BOND
     1     1     2   ar
     2     1     6   ar
     3     1    29    1
     4     2     3   ar
     5     2     7    1
     6     3     4   ar
     7     3    30    1
     8     4     5   ar
     9     4     8    1
    10     5     6   ar
    11     5     9    1
    12     6    10    1
    13     8    11    1
    14     8    12    1
    15     8    28    1
    16    11    13    1
    17    11    26    1
    18    11    27    1
    19    13    14    1
    20    14    15    1
    21    14    16    1
    22    14    31    1
    23    16    17    1
    24    16    20    2
    25    17    18    1
    26    17    19    1
    27    17    32    1
    28    20    21    1
    29    20    22    1
    30    22    23    1
    31    22    24    1
    32    22    25    1
    33    32    33    1
    34    32    34    1
    35    32    35    1
    36    13    36    1
    37    36    37    1
    38    13    38    1
@<TRIPOS>SUBSTRUCTURE
     1 1           1 GROUP             0 ****  ****    0  
@<TRIPOS>MOLECULE
Molecule Name_00001_00207
    38    38     1     0     0
SMALL
NO_CHARGES
****
Generated from the CSD

@<TRIPOS>ATOM
     1 C5      -2.9483   2.0536   0.2080   C.ar      1 1      0.0000
     2 C4      -3.0791   1.3487  -0.9939   C.ar      1 1      0.0000
     3 C3      -2.6760   0.0111  -1.0688   C.ar      1 1      0.0000
     4 C8      -2.1384  -0.6353   0.0551   C.ar      1 1      0.0000
     5 C7      -2.0033   0.0812   1.2540   C.ar      1 1      0.0000
     6 C6      -2.4053   1.4193   1.3307   C.ar      1 1      0.0000
     7 H4      -3.4864   1.8413  -1.8710   H         1 1      0.0000
     8 C9      -1.7689  -2.1082  -0.0085   C.3       1 1      0.0000
     9 H7      -1.5697  -0.4024   2.1265   H         1 1      0.0000
    10 H6      -2.2889   1.9666   2.2606   H         1 1      0.0000
    11 C10     -0.2567  -2.2867   0.2714   C.3       1 1      0.0000
    12 H9A     -2.3442  -2.6802   0.7279   H         1 1      0.0000
    13 C11      0.6276  -1.8433  -0.8599   C.3       1 1      0.0000
    14 C12      0.7889  -0.3257  -1.0500   C.3       1 1      0.0000
    15 H12A    -0.1947   0.1152  -1.2652   H         1 1      0.0000
    16 C13      1.4420   0.4716   0.0588   C.2       1 1      0.0000
    17 C14      1.4292   1.9679  -0.0594   C.3       1 1      0.0000
    18 H14B     1.5452   2.4073   0.9375   H         1 1      0.0000
    19 H14A     0.4812   2.3196  -0.4764   H         1 1      0.0000
    20 N        1.9656  -0.1463   1.0762   N.pl3     1 1      0.0000
    21 HN       1.8605  -1.1912   1.0482   H         1 1      0.0000
    22 C        2.6684   0.4785   2.2354   C.3       1 1      0.0000
    23 H1A      2.8787  -0.3138   2.9551   H         1 1      0.0000
    24 H1C      3.6100   0.9265   1.9021   H         1 1      0.0000
    25 H1B      2.0361   1.2381   2.7013   H         1 1      0.0000
    26 H10A     0.0274  -1.7300   1.1790   H         1 1      0.0000
    27 H10B    -0.0384  -3.3431   0.4948   H         1 1      0.0000
    28 H9B     -2.0072  -2.5214  -0.9947   H         1 1      0.0000
    29 H5      -3.2572   3.0922   0.2661   H         1 1      0.0000
    30 H3      -2.7665  -0.5272  -2.0097   H         1 1      0.0000
    31 H12B     1.3797  -0.1631  -1.9665   H         1 1      0.0000
    32 C15      2.6100   2.4559  -0.9660   C.3       1 1      0.0000
    33 H15A     3.5791   2.1672  -0.5474   H         1 1      0.0000
    34 H15B     2.5286   2.0520  -1.9796   H         1 1      0.0000
    35 H15C     2.5768   3.5478  -1.0263   H         1 1      0.0000
    36 O2       1.9110  -2.4037  -0.6641   O.3       1 1      0.0000
    37 H21      1.8416  -3.3943  -0.6536   H         1 1      0.0000
    38 H22      0.2209  -2.2543  -1.7827   H         1 1      0.0000
@<TRIPOS>BOND
     1     1     2   ar
     2     1     6   ar
     3     1    29    1
     4     2     3   ar
     5     2     7    1
     6     3     4   ar
     7     3    30    1
     8     4     5   ar
     9     4     8    1
    10     5     6   ar
    11     5     9    1
    12     6    10    1
    13     8    11    1
    14     8    12    1
    15     8    28    1
    16    11    13    1
    17    11    26    1
    18    11    27    1
    19    13    14    1
    20    14    15    1
    21    14    16    1
    22    14    31    1
    23    16    17    1
    24    16    20    2
    25    17    18    1
    26    17    19    1
    27    17    32    1
    28    20    21    1
    29    20    22    1
    30    22    23    1
    31    22    24    1
    32    22    25    1
    33    32    33    1
    34    32    34    1
    35    32    35    1
    36    13    36    1
    37    36    37    1
    38    13    38    1
@<TRIPOS>SUBSTRUCTURE
     1 1           1 GROUP             0 ****  ****    0  
@<TRIPOS>MOLECULE
Molecule Name_00001_00208
    38    38     1     0     0
SMALL
NO_CHARGES
****
Generated from the CSD

@<TRIPOS>ATOM
     1 C5      -4.3219   0.3755  -1.5206   C.ar      1 1      0.0000
     2 C4      -2.9898  -0.0178  -1.6922   C.ar      1 1      0.0000
     3 C3      -2.1965  -0.3095  -0.5775   C.ar      1 1      0.0000
     4 C8      -2.7251  -0.2112   0.7190   C.ar      1 1      0.0000
     5 C7      -4.0592   0.1917   0.8825   C.ar      1 1      0.0000
     6 C6      -4.8541   0.4845  -0.2312   C.ar      1 1      0.0000
     7 H4      -2.5690  -0.0897  -2.6900   H         1 1      0.0000
     8 C9      -1.8836  -0.5983   1.9240   C.3       1 1      0.0000
     9 H7      -4.4748   0.2912   1.8828   H         1 1      0.0000
    10 H6      -5.8823   0.8030  -0.0931   H         1 1      0.0000
    11 C10     -0.6081   0.2774   1.9817   C.3       1 1      0.0000
    12 H9A     -2.4556  -0.4677   2.8493   H         1 1      0.0000
    13 C11      0.5322  -0.2540   1.1597   C.3       1 1      0.0000
    14 C12      1.3989   0.7890   0.4342   C.3       1 1      0.0000
    15 H12A     1.8689   1.4458   1.1798   H         1 1      0.0000
    16 C13      2.4689   0.2971  -0.5171   C.2       1 1      0.0000
    17 C14      3.3226   1.3275  -1.1972   C.3       1 1      0.0000
    18 H14B     2.6994   2.1869  -1.4686   H         1 1      0.0000
    19 H14A     3.7645   0.9267  -2.1138   H         1 1      0.0000
    20 N        2.6336  -0.9800  -0.6989   N.pl3     1 1      0.0000
    21 HN       1.9963  -1.5843  -0.1226   H         1 1      0.0000
    22 C        3.6153  -1.6322  -1.6147   C.3       1 1      0.0000
    23 H1A      3.5627  -2.7073  -1.4371   H         1 1      0.0000
    24 H1C      3.3497  -1.4221  -2.6557   H         1 1      0.0000
    25 H1B      4.6271  -1.2757  -1.4067   H         1 1      0.0000
    26 H10A    -0.8377   1.3012   1.6446   H         1 1      0.0000
    27 H10B    -0.2707   0.3810   3.0253   H         1 1      0.0000
    28 H9B     -1.5971  -1.6543   1.8688   H         1 1      0.0000
    29 H5      -4.9370   0.6055  -2.3843   H         1 1      0.0000
    30 H3      -1.1576  -0.6006  -0.7166   H         1 1      0.0000
    31 H12B     0.7242   1.4466  -0.1384   H         1 1      0.0000
    32 C15      4.4624   1.8138  -0.2388   C.3       1 1      0.0000
    33 H15A     4.0529   2.2717   0.6669   H         1 1      0.0000
    34 H15B     5.1211   0.9890   0.0492   H         1 1      0.0000
    35 H15C     5.0607   2.5668  -0.7603   H         1 1      0.0000
    36 O2       1.3711  -1.0149   2.0062   O.3       1 1      0.0000
    37 H21      0.8530  -1.7666   2.3968   H         1 1      0.0000
    38 H22      0.1182  -0.9251   0.4086   H         1 1      0.0000
@<TRIPOS>BOND
     1     1     2   ar
     2     1     6   ar
     3     1    29    1
     4     2     3   ar
     5     2     7    1
     6     3     4   ar
     7     3    30    1
     8     4     5   ar
     9     4     8    1
    10     5     6   ar
    11     5     9    1
    12     6    10    1
    13     8    11    1
    14     8    12    1
    15     8    28    1
    16    11    13    1
    17    11    26    1
    18    11    27    1
    19    13    14    1
    20    14    15    1
    21    14    16    1
    22    14    31    1
    23    16    17    1
    24    16    20    2
    25    17    18    1
    26    17    19    1
    27    17    32    1
    28    20    21    1
    29    20    22    1
    30    22    23    1
    31    22    24    1
    32    22    25    1
    33    32    33    1
    34    32    34    1
    35    32    35    1
    36    13    36    1
    37    36    37    1
    38    13    38    1
@<TRIPOS>SUBSTRUCTURE
     1 1           1 GROUP             0 ****  ****    0  
@<TRIPOS>MOLECULE
Molecule Name_00001_00209
    38    38     1     0     0
SMALL
NO_CHARGES
****
Generated from the CSD

@<TRIPOS>ATOM
     1 C5      -4.0920   0.9498  -1.4361   C.ar      1 1      0.0000
     2 C4      -2.7638   0.5592  -1.6413   C.ar      1 1      0.0000
     3 C3      -2.0537  -0.0740  -0.6157   C.ar      1 1      0.0000
     4 C8      -2.6623  -0.3231   0.6243   C.ar      1 1      0.0000
     5 C7      -3.9917   0.0791   0.8243   C.ar      1 1      0.0000
     6 C6      -4.7035   0.7131  -0.2000   C.ar      1 1      0.0000
     7 H4      -2.2814   0.7539  -2.5936   H         1 1      0.0000
     8 C9      -1.9128  -1.0755   1.7115   C.3       1 1      0.0000
     9 H7      -4.4683  -0.0902   1.7873   H         1 1      0.0000
    10 H6      -5.7286   1.0273  -0.0322   H         1 1      0.0000
    11 C10     -0.6183  -0.3132   2.0860   C.3       1 1      0.0000
    12 H9A     -2.5396  -1.1863   2.6033   H         1 1      0.0000
    13 C11      0.5567  -0.6424   1.2090   C.3       1 1      0.0000
    14 C12      1.4994   0.5217   0.8601   C.3       1 1      0.0000
    15 H12A     1.9392   0.9169   1.7867   H         1 1      0.0000
    16 C13      2.6139   0.2705  -0.1331   C.2       1 1      0.0000
    17 C14      3.5402   1.4102  -0.4428   C.3       1 1      0.0000
    18 H14B     4.4875   1.0097  -0.8205   H         1 1      0.0000
    19 H14A     3.7543   1.9959   0.4557   H         1 1      0.0000
    20 N        2.7520  -0.9087  -0.6638   N.pl3     1 1      0.0000
    21 HN       2.0609  -1.6212  -0.3198   H         1 1      0.0000
    22 C        3.7714  -1.3195  -1.6738   C.3       1 1      0.0000
    23 H1A      3.6754  -2.3970  -1.8145   H         1 1      0.0000
    24 H1C      3.5803  -0.8102  -2.6238   H         1 1      0.0000
    25 H1B      4.7777  -1.0848  -1.3183   H         1 1      0.0000
    26 H10A    -0.7949   0.7737   2.0443   H         1 1      0.0000
    27 H10B    -0.3465  -0.5263   3.1322   H         1 1      0.0000
    28 H9B     -1.6549  -2.0846   1.3718   H         1 1      0.0000
    29 H5      -4.6425   1.4443  -2.2297   H         1 1      0.0000
    30 H3      -1.0170  -0.3621  -0.7762   H         1 1      0.0000
    31 H12B     0.8831   1.3458   0.4643   H         1 1      0.0000
    32 C15      2.9154   2.3426  -1.5358   C.3       1 1      0.0000
    33 H15A     2.7388   1.7992  -2.4692   H         1 1      0.0000
    34 H15B     1.9708   2.7783  -1.1965   H         1 1      0.0000
    35 H15C     3.6159   3.1569  -1.7432   H         1 1      0.0000
    36 O2       1.3158  -1.6509   1.8461   O.3       1 1      0.0000
    37 H21      0.7513  -2.4574   1.9766   H         1 1      0.0000
    38 H22      0.1727  -1.0523   0.2760   H         1 1      0.0000
@<TRIPOS>BOND
     1     1     2   ar
     2     1     6   ar
     3     1    29    1
     4     2     3   ar
     5     2     7    1
     6     3     4   ar
     7     3    30    1
     8     4     5   ar
     9     4     8    1
    10     5     6   ar
    11     5     9    1
    12     6    10    1
    13     8    11    1
    14     8    12    1
    15     8    28    1
    16    11    13    1
    17    11    26    1
    18    11    27    1
    19    13    14    1
    20    14    15    1
    21    14    16    1
    22    14    31    1
    23    16    17    1
    24    16    20    2
    25    17    18    1
    26    17    19    1
    27    17    32    1
    28    20    21    1
    29    20    22    1
    30    22    23    1
    31    22    24    1
    32    22    25    1
    33    32    33    1
    34    32    34    1
    35    32    35    1
    36    13    36    1
    37    36    37    1
    38    13    38    1
@<TRIPOS>SUBSTRUCTURE
     1 1           1 GROUP             0 ****  ****    0  
@<TRIPOS>MOLECULE
Molecule Name_00001_00210
    38    38     1     0     0
SMALL
NO_CHARGES
****
Generated from the CSD

@<TRIPOS>ATOM
     1 C5      -3.3293   1.8009  -0.2926   C.ar      1 1      0.0000
     2 C4      -2.8254   0.9514  -1.2841   C.ar      1 1      0.0000
     3 C3      -2.2498  -0.2737  -0.9305   C.ar      1 1      0.0000
     4 C8      -2.1716  -0.6623   0.4160   C.ar      1 1      0.0000
     5 C7      -2.6720   0.1990   1.4043   C.ar      1 1      0.0000
     6 C6      -3.2474   1.4250   1.0527   C.ar      1 1      0.0000
     7 H4      -2.8739   1.2456  -2.3275   H         1 1      0.0000
     8 C9      -1.6121  -2.0245   0.7919   C.3       1 1      0.0000
     9 H7      -2.5992  -0.0816   2.4527   H         1 1      0.0000
    10 H6      -3.6240   2.0873   1.8255   H         1 1      0.0000
    11 C10     -0.0790  -1.9314   0.9861   C.3       1 1      0.0000
    12 H9A     -2.0737  -2.3868   1.7172   H         1 1      0.0000
    13 C11      0.6863  -1.7495  -0.2944   C.3       1 1      0.0000
    14 C12      2.0267  -1.0024  -0.1919   C.3       1 1      0.0000
    15 H12A     2.5938  -1.1543  -1.1212   H         1 1      0.0000
    16 C13      2.0014   0.4787   0.1203   C.2       1 1      0.0000
    17 C14      3.3189   1.1895   0.2298   C.3       1 1      0.0000
    18 H14B     4.0389   0.5344   0.7329   H         1 1      0.0000
    19 H14A     3.2222   2.1042   0.8216   H         1 1      0.0000
    20 N        0.8619   1.0898   0.2593   N.pl3     1 1      0.0000
    21 HN       0.0218   0.4771   0.1099   H         1 1      0.0000
    22 C        0.6559   2.5300   0.5930   C.3       1 1      0.0000
    23 H1A     -0.4135   2.7321   0.5198   H         1 1      0.0000
    24 H1C      0.9942   2.7271   1.6154   H         1 1      0.0000
    25 H1B      1.1980   3.1666  -0.1105   H         1 1      0.0000
    26 H10A     0.1657  -1.0975   1.6636   H         1 1      0.0000
    27 H10B     0.2913  -2.8379   1.4910   H         1 1      0.0000
    28 H9B     -1.8356  -2.7599   0.0113   H         1 1      0.0000
    29 H5      -3.7726   2.7529  -0.5655   H         1 1      0.0000
    30 H3      -1.8466  -0.9232  -1.7044   H         1 1      0.0000
    31 H12B     2.6268  -1.4952   0.5907   H         1 1      0.0000
    32 C15      3.8694   1.5453  -1.1930   C.3       1 1      0.0000
    33 H15A     4.0302   0.6452  -1.7944   H         1 1      0.0000
    34 H15B     3.1876   2.2117  -1.7299   H         1 1      0.0000
    35 H15C     4.8308   2.0547  -1.0790   H         1 1      0.0000
    36 O2       0.9328  -3.0270  -0.8480   O.3       1 1      0.0000
    37 H21      0.0687  -3.4817  -1.0289   H         1 1      0.0000
    38 H22      0.0507  -1.2016  -0.9885   H         1 1      0.0000
@<TRIPOS>BOND
     1     1     2   ar
     2     1     6   ar
     3     1    29    1
     4     2     3   ar
     5     2     7    1
     6     3     4   ar
     7     3    30    1
     8     4     5   ar
     9     4     8    1
    10     5     6   ar
    11     5     9    1
    12     6    10    1
    13     8    11    1
    14     8    12    1
    15     8    28    1
    16    11    13    1
    17    11    26    1
    18    11    27    1
    19    13    14    1
    20    14    15    1
    21    14    16    1
    22    14    31    1
    23    16    17    1
    24    16    20    2
    25    17    18    1
    26    17    19    1
    27    17    32    1
    28    20    21    1
    29    20    22    1
    30    22    23    1
    31    22    24    1
    32    22    25    1
    33    32    33    1
    34    32    34    1
    35    32    35    1
    36    13    36    1
    37    36    37    1
    38    13    38    1
@<TRIPOS>SUBSTRUCTURE
     1 1           1 GROUP             0 ****  ****    0  
@<TRIPOS>MOLECULE
Molecule Name_00001_00211
    38    38     1     0     0
SMALL
NO_CHARGES
****
Generated from the CSD

@<TRIPOS>ATOM
     1 C5      -4.9527   0.5467   0.4859   C.ar      1 1      0.0000
     2 C4      -4.7269  -0.1644  -0.6981   C.ar      1 1      0.0000
     3 C3      -3.4965  -0.7945  -0.9128   C.ar      1 1      0.0000
     4 C8      -2.4798  -0.7206   0.0521   C.ar      1 1      0.0000
     5 C7      -2.7117   0.0013   1.2328   C.ar      1 1      0.0000
     6 C6      -3.9414   0.6328   1.4491   C.ar      1 1      0.0000
     7 H4      -5.5035  -0.2214  -1.4540   H         1 1      0.0000
     8 C9      -1.1710  -1.4660  -0.1513   C.3       1 1      0.0000
     9 H7      -1.9249   0.0829   1.9794   H         1 1      0.0000
    10 H6      -4.1074   1.1953   2.3622   H         1 1      0.0000
    11 C10     -0.1849  -0.5916  -0.9636   C.3       1 1      0.0000
    12 H9A     -0.7201  -1.7199   0.8145   H         1 1      0.0000
    13 C11      0.3197   0.6105  -0.2161   C.3       1 1      0.0000
    14 C12      1.7500   1.0712  -0.5439   C.3       1 1      0.0000
    15 H12A     1.9073   2.0762  -0.1275   H         1 1      0.0000
    16 C13      2.9039   0.1880  -0.1195   C.2       1 1      0.0000
    17 C14      4.2930   0.6524  -0.4476   C.3       1 1      0.0000
    18 H14B     4.2914   1.1140  -1.4413   H         1 1      0.0000
    19 H14A     4.9928  -0.1880  -0.4657   H         1 1      0.0000
    20 N        2.6684  -0.9161   0.5261   N.pl3     1 1      0.0000
    21 HN       1.6523  -1.0910   0.7269   H         1 1      0.0000
    22 C        3.6790  -1.9110   0.9918   C.3       1 1      0.0000
    23 H1A      3.1526  -2.6537   1.5929   H         1 1      0.0000
    24 H1C      4.1420  -2.4024   0.1301   H         1 1      0.0000
    25 H1B      4.4438  -1.4225   1.6005   H         1 1      0.0000
    26 H10A     0.6796  -1.1954  -1.2834   H         1 1      0.0000
    27 H10B    -0.6650  -0.2504  -1.8947   H         1 1      0.0000
    28 H9B     -1.3444  -2.4079  -0.6832   H         1 1      0.0000
    29 H5      -5.9053   1.0390   0.6518   H         1 1      0.0000
    30 H3      -3.3218  -1.3335  -1.8414   H         1 1      0.0000
    31 H12B     1.8183   1.2025  -1.6364   H         1 1      0.0000
    32 C15      4.7782   1.7117   0.5997   C.3       1 1      0.0000
    33 H15A     4.1293   2.5929   0.6047   H         1 1      0.0000
    34 H15B     4.8095   1.2902   1.6089   H         1 1      0.0000
    35 H15C     5.7881   2.0341   0.3293   H         1 1      0.0000
    36 O2      -0.5606   1.6886  -0.4657   O.3       1 1      0.0000
    37 H21     -1.1213   1.8508   0.3377   H         1 1      0.0000
    38 H22      0.2773   0.3841   0.8482   H         1 1      0.0000
@<TRIPOS>BOND
     1     1     2   ar
     2     1     6   ar
     3     1    29    1
     4     2     3   ar
     5     2     7    1
     6     3     4   ar
     7     3    30    1
     8     4     5   ar
     9     4     8    1
    10     5     6   ar
    11     5     9    1
    12     6    10    1
    13     8    11    1
    14     8    12    1
    15     8    28    1
    16    11    13    1
    17    11    26    1
    18    11    27    1
    19    13    14    1
    20    14    15    1
    21    14    16    1
    22    14    31    1
    23    16    17    1
    24    16    20    2
    25    17    18    1
    26    17    19    1
    27    17    32    1
    28    20    21    1
    29    20    22    1
    30    22    23    1
    31    22    24    1
    32    22    25    1
    33    32    33    1
    34    32    34    1
    35    32    35    1
    36    13    36    1
    37    36    37    1
    38    13    38    1
@<TRIPOS>SUBSTRUCTURE
     1 1           1 GROUP             0 ****  ****    0  
@<TRIPOS>MOLECULE
Molecule Name_00001_00212
    38    38     1     0     0
SMALL
NO_CHARGES
****
Generated from the CSD

@<TRIPOS>ATOM
     1 C5      -3.4055   1.3932  -1.0504   C.ar      1 1      0.0000
     2 C4      -2.9488   0.1658  -1.5438   C.ar      1 1      0.0000
     3 C3      -2.3199  -0.7434  -0.6864   C.ar      1 1      0.0000
     4 C8      -2.1407  -0.4359   0.6713   C.ar      1 1      0.0000
     5 C7      -2.5943   0.8003   1.1559   C.ar      1 1      0.0000
     6 C6      -3.2229   1.7112   0.2999   C.ar      1 1      0.0000
     7 H4      -3.0755  -0.0787  -2.5935   H         1 1      0.0000
     8 C9      -1.5228  -1.4543   1.6153   C.3       1 1      0.0000
     9 H7      -2.4435   1.0588   2.2017   H         1 1      0.0000
    10 H6      -3.5628   2.6679   0.6834   H         1 1      0.0000
    11 C10      0.0171  -1.2956   1.6302   C.3       1 1      0.0000
    12 H9A     -1.9113  -1.3209   2.6310   H         1 1      0.0000
    13 C11      0.6889  -1.7613   0.3692   C.3       1 1      0.0000
    14 C12      2.0139  -1.0717   0.0031   C.3       1 1      0.0000
    15 H12A     2.5202  -1.6586  -0.7762   H         1 1      0.0000
    16 C13      1.9726   0.3767  -0.4351   C.2       1 1      0.0000
    17 C14      3.2761   1.0382  -0.7759   C.3       1 1      0.0000
    18 H14B     3.0837   1.8898  -1.4379   H         1 1      0.0000
    19 H14A     3.9414   0.3458  -1.2995   H         1 1      0.0000
    20 N        0.8301   0.9913  -0.5262   N.pl3     1 1      0.0000
    21 HN      -0.0025   0.3915  -0.3016   H         1 1      0.0000
    22 C        0.6111   2.4162  -0.9131   C.3       1 1      0.0000
    23 H1A     -0.4656   2.5694  -0.9978   H         1 1      0.0000
    24 H1C      1.0129   3.0780  -0.1391   H         1 1      0.0000
    25 H1B      1.0879   2.6292  -1.8729   H         1 1      0.0000
    26 H10A     0.2862  -0.2410   1.8033   H         1 1      0.0000
    27 H10B     0.4436  -1.8505   2.4811   H         1 1      0.0000
    28 H9B     -1.7802  -2.4725   1.3033   H         1 1      0.0000
    29 H5      -3.8901   2.1006  -1.7152   H         1 1      0.0000
    30 H3      -1.9540  -1.6897  -1.0789   H         1 1      0.0000
    31 H12B     2.6780  -1.1328   0.8811   H         1 1      0.0000
    32 C15      3.9825   1.5582   0.5221   C.3       1 1      0.0000
    33 H15A     3.3651   2.2966   1.0429   H         1 1      0.0000
    34 H15B     4.2078   0.7378   1.2101   H         1 1      0.0000
    35 H15C     4.9234   2.0395   0.2397   H         1 1      0.0000
    36 O2       0.9293  -3.1501   0.4828   O.3       1 1      0.0000
    37 H21      0.0667  -3.6264   0.6056   H         1 1      0.0000
    38 H22     -0.0060  -1.6090  -0.4553   H         1 1      0.0000
@<TRIPOS>BOND
     1     1     2   ar
     2     1     6   ar
     3     1    29    1
     4     2     3   ar
     5     2     7    1
     6     3     4   ar
     7     3    30    1
     8     4     5   ar
     9     4     8    1
    10     5     6   ar
    11     5     9    1
    12     6    10    1
    13     8    11    1
    14     8    12    1
    15     8    28    1
    16    11    13    1
    17    11    26    1
    18    11    27    1
    19    13    14    1
    20    14    15    1
    21    14    16    1
    22    14    31    1
    23    16    17    1
    24    16    20    2
    25    17    18    1
    26    17    19    1
    27    17    32    1
    28    20    21    1
    29    20    22    1
    30    22    23    1
    31    22    24    1
    32    22    25    1
    33    32    33    1
    34    32    34    1
    35    32    35    1
    36    13    36    1
    37    36    37    1
    38    13    38    1
@<TRIPOS>SUBSTRUCTURE
     1 1           1 GROUP             0 ****  ****    0  
@<TRIPOS>MOLECULE
Molecule Name_00001_00213
    38    38     1     0     0
SMALL
NO_CHARGES
****
Generated from the CSD

@<TRIPOS>ATOM
     1 C5      -4.9878   0.3326   0.5298   C.ar      1 1      0.0000
     2 C4      -4.6758   0.1077  -0.8158   C.ar      1 1      0.0000
     3 C3      -3.4161  -0.3878  -1.1693   C.ar      1 1      0.0000
     4 C8      -2.4561  -0.6632  -0.1831   C.ar      1 1      0.0000
     5 C7      -2.7744  -0.4272   1.1630   C.ar      1 1      0.0000
     6 C6      -4.0334   0.0689   1.5185   C.ar      1 1      0.0000
     7 H4      -5.4081   0.3246  -1.5867   H         1 1      0.0000
     8 C9      -1.1152  -1.2694  -0.5634   C.3       1 1      0.0000
     9 H7      -2.0321  -0.6177   1.9350   H         1 1      0.0000
    10 H6      -4.2664   0.2555   2.5619   H         1 1      0.0000
    11 C10     -0.1148  -0.1484  -0.9368   C.3       1 1      0.0000
    12 H9A     -0.7094  -1.8556   0.2686   H         1 1      0.0000
    13 C11      0.3102   0.7004   0.2283   C.3       1 1      0.0000
    14 C12      1.7408   1.2630   0.1810   C.3       1 1      0.0000
    15 H12A     1.8433   2.0465   0.9450   H         1 1      0.0000
    16 C13      2.8975   0.2968   0.3237   C.2       1 1      0.0000
    17 C14      4.2869   0.8626   0.2751   C.3       1 1      0.0000
    18 H14B     4.9727   0.1729   0.7796   H         1 1      0.0000
    19 H14A     4.3356   1.8261   0.7905   H         1 1      0.0000
    20 N        2.6626  -0.9694   0.5049   N.pl3     1 1      0.0000
    21 HN       1.6431  -1.2156   0.5644   H         1 1      0.0000
    22 C        3.6774  -2.0560   0.6363   C.3       1 1      0.0000
    23 H1A      3.1430  -2.9725   0.8902   H         1 1      0.0000
    24 H1C      4.2018  -2.1924  -0.3149   H         1 1      0.0000
    25 H1B      4.3922  -1.8176   1.4276   H         1 1      0.0000
    26 H10A     0.7845  -0.5844  -1.4010   H         1 1      0.0000
    27 H10B    -0.5543   0.5060  -1.7064   H         1 1      0.0000
    28 H9B     -1.2296  -1.9520  -1.4126   H         1 1      0.0000
    29 H5      -5.9632   0.7204   0.8048   H         1 1      0.0000
    30 H3      -3.1743  -0.5467  -2.2179   H         1 1      0.0000
    31 H12B     1.8641   1.7867  -0.7813   H         1 1      0.0000
    32 C15      4.7539   1.0419  -1.2095   C.3       1 1      0.0000
    33 H15A     4.7695   0.0850  -1.7404   H         1 1      0.0000
    34 H15B     4.1043   1.7359  -1.7514   H         1 1      0.0000
    35 H15C     5.7695   1.4483  -1.2104   H         1 1      0.0000
    36 O2      -0.5891   1.7862   0.3362   O.3       1 1      0.0000
    37 H21     -1.1976   1.6368   1.1065   H         1 1      0.0000
    38 H22      0.2174   0.0988   1.1313   H         1 1      0.0000
@<TRIPOS>BOND
     1     1     2   ar
     2     1     6   ar
     3     1    29    1
     4     2     3   ar
     5     2     7    1
     6     3     4   ar
     7     3    30    1
     8     4     5   ar
     9     4     8    1
    10     5     6   ar
    11     5     9    1
    12     6    10    1
    13     8    11    1
    14     8    12    1
    15     8    28    1
    16    11    13    1
    17    11    26    1
    18    11    27    1
    19    13    14    1
    20    14    15    1
    21    14    16    1
    22    14    31    1
    23    16    17    1
    24    16    20    2
    25    17    18    1
    26    17    19    1
    27    17    32    1
    28    20    21    1
    29    20    22    1
    30    22    23    1
    31    22    24    1
    32    22    25    1
    33    32    33    1
    34    32    34    1
    35    32    35    1
    36    13    36    1
    37    36    37    1
    38    13    38    1
@<TRIPOS>SUBSTRUCTURE
     1 1           1 GROUP             0 ****  ****    0  
@<TRIPOS>MOLECULE
Molecule Name_00001_00214
    38    38     1     0     0
SMALL
NO_CHARGES
****
Generated from the CSD

@<TRIPOS>ATOM
     1 C5      -4.8171   1.1655  -0.8114   C.ar      1 1      0.0000
     2 C4      -4.4747   1.1057   0.5442   C.ar      1 1      0.0000
     3 C3      -3.3814   0.3368   0.9571   C.ar      1 1      0.0000
     4 C8      -2.6198  -0.3799   0.0210   C.ar      1 1      0.0000
     5 C7      -2.9749  -0.3209  -1.3353   C.ar      1 1      0.0000
     6 C6      -4.0685   0.4470  -1.7502   C.ar      1 1      0.0000
     7 H4      -5.0616   1.6499   1.2771   H         1 1      0.0000
     8 C9      -1.3898  -1.1557   0.4627   C.3       1 1      0.0000
     9 H7      -2.4049  -0.8877  -2.0681   H         1 1      0.0000
    10 H6      -4.3394   0.4793  -2.8005   H         1 1      0.0000
    11 C10     -0.3289  -0.1842   1.0351   C.3       1 1      0.0000
    12 H9A     -1.6559  -1.8939   1.2274   H         1 1      0.0000
    13 C11      0.9288  -0.8624   1.5002   C.3       1 1      0.0000
    14 C12      2.2403  -0.0826   1.3062   C.3       1 1      0.0000
    15 H12A     2.9956  -0.4725   2.0032   H         1 1      0.0000
    16 C13      2.8459  -0.0296  -0.0801   C.2       1 1      0.0000
    17 C14      2.2441   0.9287  -1.0663   C.3       1 1      0.0000
    18 H14B     1.1530   0.9046  -0.9694   H         1 1      0.0000
    19 H14A     2.4994   0.6470  -2.0918   H         1 1      0.0000
    20 N        3.8662  -0.7827  -0.3682   N.pl3     1 1      0.0000
    21 HN       4.2106  -1.3689   0.4326   H         1 1      0.0000
    22 C        4.5641  -0.8757  -1.6844   C.3       1 1      0.0000
    23 H1A      5.4394  -1.5116  -1.5453   H         1 1      0.0000
    24 H1C      3.8994  -1.3290  -2.4268   H         1 1      0.0000
    25 H1B      4.8806   0.1149  -2.0199   H         1 1      0.0000
    26 H10A    -0.0621   0.5715   0.2786   H         1 1      0.0000
    27 H10B    -0.7550   0.3826   1.8783   H         1 1      0.0000
    28 H9B     -0.9601  -1.7069  -0.3811   H         1 1      0.0000
    29 H5      -5.6672   1.7586  -1.1324   H         1 1      0.0000
    30 H3      -3.1290   0.2825   2.0139   H         1 1      0.0000
    31 H12B     2.0642   0.9563   1.6303   H         1 1      0.0000
    32 C15      2.7430   2.3873  -0.7873   C.3       1 1      0.0000
    33 H15A     2.4553   2.7219   0.2142   H         1 1      0.0000
    34 H15B     3.8300   2.4634  -0.8865   H         1 1      0.0000
    35 H15C     2.2823   3.0603  -1.5165   H         1 1      0.0000
    36 O2       0.7893  -1.1585   2.8758   O.3       1 1      0.0000
    37 H21      0.0094  -1.7589   3.0076   H         1 1      0.0000
    38 H22      1.0182  -1.8053   0.9628   H         1 1      0.0000
@<TRIPOS>BOND
     1     1     2   ar
     2     1     6   ar
     3     1    29    1
     4     2     3   ar
     5     2     7    1
     6     3     4   ar
     7     3    30    1
     8     4     5   ar
     9     4     8    1
    10     5     6   ar
    11     5     9    1
    12     6    10    1
    13     8    11    1
    14     8    12    1
    15     8    28    1
    16    11    13    1
    17    11    26    1
    18    11    27    1
    19    13    14    1
    20    14    15    1
    21    14    16    1
    22    14    31    1
    23    16    17    1
    24    16    20    2
    25    17    18    1
    26    17    19    1
    27    17    32    1
    28    20    21    1
    29    20    22    1
    30    22    23    1
    31    22    24    1
    32    22    25    1
    33    32    33    1
    34    32    34    1
    35    32    35    1
    36    13    36    1
    37    36    37    1
    38    13    38    1
@<TRIPOS>SUBSTRUCTURE
     1 1           1 GROUP             0 ****  ****    0  
@<TRIPOS>MOLECULE
Molecule Name_00001_00215
    38    38     1     0     0
SMALL
NO_CHARGES
****
Generated from the CSD

@<TRIPOS>ATOM
     1 C5      -4.7175  -0.4185   1.2786   C.ar      1 1      0.0000
     2 C4      -4.4132  -0.9136   0.0055   C.ar      1 1      0.0000
     3 C3      -3.2855  -0.4450  -0.6771   C.ar      1 1      0.0000
     4 C8      -2.4512   0.5223  -0.0955   C.ar      1 1      0.0000
     5 C7      -2.7681   1.0194   1.1778   C.ar      1 1      0.0000
     6 C6      -3.8959   0.5524   1.8619   C.ar      1 1      0.0000
     7 H4      -5.0559  -1.6561  -0.4564   H         1 1      0.0000
     8 C9      -1.1876   0.9764  -0.8077   C.3       1 1      0.0000
     9 H7      -2.1407   1.7838   1.6309   H         1 1      0.0000
    10 H6      -4.1364   0.9494   2.8428   H         1 1      0.0000
    11 C10     -0.2096  -0.2140  -0.9602   C.3       1 1      0.0000
    12 H9A     -1.4286   1.3772  -1.7986   H         1 1      0.0000
    13 C11      1.0747   0.1392  -1.6560   C.3       1 1      0.0000
    14 C12      2.3289  -0.6337  -1.2145   C.3       1 1      0.0000
    15 H12A     3.1364  -0.4496  -1.9372   H         1 1      0.0000
    16 C13      2.8666  -0.3936   0.1801   C.2       1 1      0.0000
    17 C14      3.5383   0.9212   0.4502   C.3       1 1      0.0000
    18 H14B     4.1337   1.2060  -0.4244   H         1 1      0.0000
    19 H14A     4.2117   0.8477   1.3089   H         1 1      0.0000
    20 N        2.7149  -1.3041   1.0961   N.pl3     1 1      0.0000
    21 HN       2.1853  -2.1536   0.7777   H         1 1      0.0000
    22 C        3.2041  -1.2435   2.5050   C.3       1 1      0.0000
    23 H1A      2.8088  -2.1169   3.0255   H         1 1      0.0000
    24 H1C      4.2982  -1.2751   2.5207   H         1 1      0.0000
    25 H1B      2.8482  -0.3335   2.9942   H         1 1      0.0000
    26 H10A     0.0308  -0.6342   0.0298   H         1 1      0.0000
    27 H10B    -0.6967  -1.0315  -1.5153   H         1 1      0.0000
    28 H9B     -0.6979   1.7794  -0.2460   H         1 1      0.0000
    29 H5      -5.5939  -0.7785   1.8074   H         1 1      0.0000
    30 H3      -3.0623  -0.8229  -1.6724   H         1 1      0.0000
    31 H12B     2.1084  -1.7103  -1.3033   H         1 1      0.0000
    32 C15      2.4715   2.0366   0.7187   C.3       1 1      0.0000
    33 H15A     2.3760   2.7109  -0.1379   H         1 1      0.0000
    34 H15B     1.4904   1.6057   0.9403   H         1 1      0.0000
    35 H15C     2.7919   2.6267   1.5824   H         1 1      0.0000
    36 O2       0.8961  -0.0628  -3.0441   O.3       1 1      0.0000
    37 H21      0.1601   0.5182  -3.3711   H         1 1      0.0000
    38 H22      1.2616   1.1998  -1.4941   H         1 1      0.0000
@<TRIPOS>BOND
     1     1     2   ar
     2     1     6   ar
     3     1    29    1
     4     2     3   ar
     5     2     7    1
     6     3     4   ar
     7     3    30    1
     8     4     5   ar
     9     4     8    1
    10     5     6   ar
    11     5     9    1
    12     6    10    1
    13     8    11    1
    14     8    12    1
    15     8    28    1
    16    11    13    1
    17    11    26    1
    18    11    27    1
    19    13    14    1
    20    14    15    1
    21    14    16    1
    22    14    31    1
    23    16    17    1
    24    16    20    2
    25    17    18    1
    26    17    19    1
    27    17    32    1
    28    20    21    1
    29    20    22    1
    30    22    23    1
    31    22    24    1
    32    22    25    1
    33    32    33    1
    34    32    34    1
    35    32    35    1
    36    13    36    1
    37    36    37    1
    38    13    38    1
@<TRIPOS>SUBSTRUCTURE
     1 1           1 GROUP             0 ****  ****    0  
@<TRIPOS>MOLECULE
Molecule Name_00001_00216
    38    38     1     0     0
SMALL
NO_CHARGES
****
Generated from the CSD

@<TRIPOS>ATOM
     1 C5      -4.8676  -0.8133   1.1193   C.ar      1 1      0.0000
     2 C4      -4.5127  -1.0709  -0.2097   C.ar      1 1      0.0000
     3 C3      -3.4037  -0.4322  -0.7748   C.ar      1 1      0.0000
     4 C8      -2.6387   0.4697  -0.0189   C.ar      1 1      0.0000
     5 C7      -3.0064   0.7284   1.3103   C.ar      1 1      0.0000
     6 C6      -4.1156   0.0911   1.8772   C.ar      1 1      0.0000
     7 H4      -5.1019  -1.7607  -0.8053   H         1 1      0.0000
     8 C9      -1.3927   1.1066  -0.6120   C.3       1 1      0.0000
     9 H7      -2.4337   1.4404   1.9005   H         1 1      0.0000
    10 H6      -4.3960   0.3045   2.9036   H         1 1      0.0000
    11 C10     -0.3427   0.0153  -0.9335   C.3       1 1      0.0000
    12 H9A     -1.6405   1.6531  -1.5287   H         1 1      0.0000
    13 C11      0.9297   0.5515  -1.5267   C.3       1 1      0.0000
    14 C12      2.2203  -0.2126  -1.1861   C.3       1 1      0.0000
    15 H12A     3.0274   0.1348  -1.8465   H         1 1      0.0000
    16 C13      2.7189  -0.1790   0.2428   C.2       1 1      0.0000
    17 C14      3.3061   1.1078   0.7450   C.3       1 1      0.0000
    18 H14B     3.2422   1.1284   1.8386   H         1 1      0.0000
    19 H14A     2.7531   1.9681   0.3572   H         1 1      0.0000
    20 N        2.6065  -1.2369   0.9908   N.pl3     1 1      0.0000
    21 HN       2.1342  -2.0496   0.5220   H         1 1      0.0000
    22 C        3.0672  -1.3851   2.4029   C.3       1 1      0.0000
    23 H1A      2.7162  -2.3540   2.7606   H         1 1      0.0000
    24 H1C      4.1609  -1.3573   2.4423   H         1 1      0.0000
    25 H1B      2.6493  -0.5911   3.0265   H         1 1      0.0000
    26 H10A    -0.0945  -0.5501  -0.0208   H         1 1      0.0000
    27 H10B    -0.7706  -0.7240  -1.6294   H         1 1      0.0000
    28 H9B     -0.9615   1.8308   0.0880   H         1 1      0.0000
    29 H5      -5.7297  -1.3053   1.5575   H         1 1      0.0000
    30 H3      -3.1414  -0.6254  -1.8127   H         1 1      0.0000
    31 H12B     2.0662  -1.2699  -1.4580   H         1 1      0.0000
    32 C15      4.8110   1.2239   0.3256   C.3       1 1      0.0000
    33 H15A     5.4053   0.4057   0.7440   H         1 1      0.0000
    34 H15B     4.9236   1.2216  -0.7628   H         1 1      0.0000
    35 H15C     5.2102   2.1665   0.7115   H         1 1      0.0000
    36 O2       0.7870   0.5745  -2.9333   O.3       1 1      0.0000
    37 H21      0.0232   1.1596  -3.1790   H         1 1      0.0000
    38 H22      1.0500   1.5789  -1.1863   H         1 1      0.0000
@<TRIPOS>BOND
     1     1     2   ar
     2     1     6   ar
     3     1    29    1
     4     2     3   ar
     5     2     7    1
     6     3     4   ar
     7     3    30    1
     8     4     5   ar
     9     4     8    1
    10     5     6   ar
    11     5     9    1
    12     6    10    1
    13     8    11    1
    14     8    12    1
    15     8    28    1
    16    11    13    1
    17    11    26    1
    18    11    27    1
    19    13    14    1
    20    14    15    1
    21    14    16    1
    22    14    31    1
    23    16    17    1
    24    16    20    2
    25    17    18    1
    26    17    19    1
    27    17    32    1
    28    20    21    1
    29    20    22    1
    30    22    23    1
    31    22    24    1
    32    22    25    1
    33    32    33    1
    34    32    34    1
    35    32    35    1
    36    13    36    1
    37    36    37    1
    38    13    38    1
@<TRIPOS>SUBSTRUCTURE
     1 1           1 GROUP             0 ****  ****    0  
@<TRIPOS>MOLECULE
Molecule Name_00001_00217
    38    38     1     0     0
SMALL
NO_CHARGES
****
Generated from the CSD

@<TRIPOS>ATOM
     1 C5      -5.6542  -0.2676  -0.2188   C.ar      1 1      0.0000
     2 C4      -5.3717   0.5949   0.8465   C.ar      1 1      0.0000
     3 C3      -4.0442   0.8843   1.1802   C.ar      1 1      0.0000
     4 C8      -2.9864   0.3155   0.4539   C.ar      1 1      0.0000
     5 C7      -3.2785  -0.5546  -0.6075   C.ar      1 1      0.0000
     6 C6      -4.6054  -0.8458  -0.9424   C.ar      1 1      0.0000
     7 H4      -6.1820   1.0340   1.4194   H         1 1      0.0000
     8 C9      -1.5476   0.6880   0.7718   C.3       1 1      0.0000
     9 H7      -2.4675  -1.0175  -1.1653   H         1 1      0.0000
    10 H6      -4.8201  -1.5264  -1.7600   H         1 1      0.0000
    11 C10     -0.5833  -0.0780  -0.1664   C.3       1 1      0.0000
    12 H9A     -1.3941   1.7658   0.6483   H         1 1      0.0000
    13 C11      0.8686   0.2266   0.0735   C.3       1 1      0.0000
    14 C12      1.8824  -0.5411  -0.7915   C.3       1 1      0.0000
    15 H12A     1.7513  -0.2480  -1.8427   H         1 1      0.0000
    16 C13      3.3513  -0.4346  -0.4413   C.2       1 1      0.0000
    17 C14      3.8535   0.8887   0.0582   C.3       1 1      0.0000
    18 H14B     3.3739   1.6924  -0.5116   H         1 1      0.0000
    19 H14A     4.9351   0.9745  -0.0800   H         1 1      0.0000
    20 N        4.1198  -1.4773  -0.5570   N.pl3     1 1      0.0000
    21 HN       3.6233  -2.3473  -0.8735   H         1 1      0.0000
    22 C        5.5858  -1.5408  -0.2833   C.3       1 1      0.0000
    23 H1A      5.8891  -2.5850  -0.3711   H         1 1      0.0000
    24 H1C      6.1285  -0.9411  -1.0210   H         1 1      0.0000
    25 H1B      5.8021  -1.1802   0.7253   H         1 1      0.0000
    26 H10A    -0.7371  -1.1640  -0.0605   H         1 1      0.0000
    27 H10B    -0.8213   0.1509  -1.2175   H         1 1      0.0000
    28 H9B     -1.3097   0.4462   1.8135   H         1 1      0.0000
    29 H5      -6.6833  -0.4957  -0.4761   H         1 1      0.0000
    30 H3      -3.8308   1.5439   2.0185   H         1 1      0.0000
    31 H12B     1.6110  -1.6092  -0.7585   H         1 1      0.0000
    32 C15      3.5062   1.0695   1.5750   C.3       1 1      0.0000
    33 H15A     2.6689   1.7606   1.7123   H         1 1      0.0000
    34 H15B     3.2555   0.1133   2.0441   H         1 1      0.0000
    35 H15C     4.3788   1.4861   2.0867   H         1 1      0.0000
    36 O2       1.0702   1.6110  -0.1319   O.3       1 1      0.0000
    37 H21      0.8391   2.1058   0.6974   H         1 1      0.0000
    38 H22      1.0875   0.0085   1.1177   H         1 1      0.0000
@<TRIPOS>BOND
     1     1     2   ar
     2     1     6   ar
     3     1    29    1
     4     2     3   ar
     5     2     7    1
     6     3     4   ar
     7     3    30    1
     8     4     5   ar
     9     4     8    1
    10     5     6   ar
    11     5     9    1
    12     6    10    1
    13     8    11    1
    14     8    12    1
    15     8    28    1
    16    11    13    1
    17    11    26    1
    18    11    27    1
    19    13    14    1
    20    14    15    1
    21    14    16    1
    22    14    31    1
    23    16    17    1
    24    16    20    2
    25    17    18    1
    26    17    19    1
    27    17    32    1
    28    20    21    1
    29    20    22    1
    30    22    23    1
    31    22    24    1
    32    22    25    1
    33    32    33    1
    34    32    34    1
    35    32    35    1
    36    13    36    1
    37    36    37    1
    38    13    38    1
@<TRIPOS>SUBSTRUCTURE
     1 1           1 GROUP             0 ****  ****    0  
@<TRIPOS>MOLECULE
Molecule Name_00001_00218
    38    38     1     0     0
SMALL
NO_CHARGES
****
Generated from the CSD

@<TRIPOS>ATOM
     1 C5      -5.6775   0.5753  -0.3295   C.ar      1 1      0.0000
     2 C4      -4.8484   0.0624  -1.3335   C.ar      1 1      0.0000
     3 C3      -3.5554  -0.3705  -1.0208   C.ar      1 1      0.0000
     4 C8      -3.0776  -0.2953   0.2968   C.ar      1 1      0.0000
     5 C7      -3.9126   0.2279   1.2959   C.ar      1 1      0.0000
     6 C6      -5.2059   0.6620   0.9850   C.ar      1 1      0.0000
     7 H4      -5.2052   0.0069  -2.3569   H         1 1      0.0000
     8 C9      -1.6999  -0.8329   0.6471   C.3       1 1      0.0000
     9 H7      -3.5470   0.3101   2.3170   H         1 1      0.0000
    10 H6      -5.8405   1.0724   1.7638   H         1 1      0.0000
    11 C10     -0.6245  -0.1408  -0.2255   C.3       1 1      0.0000
    12 H9A     -1.4770  -0.6569   1.7053   H         1 1      0.0000
    13 C11      0.7796  -0.3303   0.2755   C.3       1 1      0.0000
    14 C12      1.9008   0.2894  -0.5755   C.3       1 1      0.0000
    15 H12A     1.7592   1.3787  -0.6168   H         1 1      0.0000
    16 C13      3.3366   0.0047  -0.1891   C.2       1 1      0.0000
    17 C14      4.0847   1.0770   0.5480   C.3       1 1      0.0000
    18 H14B     4.9114   0.6202   1.1034   H         1 1      0.0000
    19 H14A     3.4345   1.5853   1.2657   H         1 1      0.0000
    20 N        3.8668  -1.1470  -0.4787   N.pl3     1 1      0.0000
    21 HN       3.2122  -1.8169  -0.9542   H         1 1      0.0000
    22 C        5.2671  -1.5811  -0.1981   C.3       1 1      0.0000
    23 H1A      5.3420  -2.6355  -0.4677   H         1 1      0.0000
    24 H1C      5.9662  -0.9993  -0.8074   H         1 1      0.0000
    25 H1B      5.5006  -1.4566   0.8621   H         1 1      0.0000
    26 H10A    -0.6817  -0.5131  -1.2611   H         1 1      0.0000
    27 H10B    -0.8316   0.9393  -0.2903   H         1 1      0.0000
    28 H9B     -1.6577  -1.9156   0.4849   H         1 1      0.0000
    29 H5      -6.6792   0.9148  -0.5716   H         1 1      0.0000
    30 H3      -2.9105  -0.7547  -1.8082   H         1 1      0.0000
    31 H12B     1.7633  -0.0544  -1.6139   H         1 1      0.0000
    32 C15      4.6712   2.1257  -0.4572   C.3       1 1      0.0000
    33 H15A     5.3707   1.6584  -1.1573   H         1 1      0.0000
    34 H15B     3.8783   2.6197  -1.0269   H         1 1      0.0000
    35 H15C     5.2146   2.8877   0.1093   H         1 1      0.0000
    36 O2       0.8616   0.2123   1.5787   O.3       1 1      0.0000
    37 H21      0.4174  -0.4009   2.2211   H         1 1      0.0000
    38 H22      0.9672  -1.4007   0.3469   H         1 1      0.0000
@<TRIPOS>BOND
     1     1     2   ar
     2     1     6   ar
     3     1    29    1
     4     2     3   ar
     5     2     7    1
     6     3     4   ar
     7     3    30    1
     8     4     5   ar
     9     4     8    1
    10     5     6   ar
    11     5     9    1
    12     6    10    1
    13     8    11    1
    14     8    12    1
    15     8    28    1
    16    11    13    1
    17    11    26    1
    18    11    27    1
    19    13    14    1
    20    14    15    1
    21    14    16    1
    22    14    31    1
    23    16    17    1
    24    16    20    2
    25    17    18    1
    26    17    19    1
    27    17    32    1
    28    20    21    1
    29    20    22    1
    30    22    23    1
    31    22    24    1
    32    22    25    1
    33    32    33    1
    34    32    34    1
    35    32    35    1
    36    13    36    1
    37    36    37    1
    38    13    38    1
@<TRIPOS>SUBSTRUCTURE
     1 1           1 GROUP             0 ****  ****    0  
@<TRIPOS>MOLECULE
Molecule Name_00001_00219
    38    38     1     0     0
SMALL
NO_CHARGES
****
Generated from the CSD

@<TRIPOS>ATOM
     1 C5      -5.6216  -0.2640   0.1245   C.ar      1 1      0.0000
     2 C4      -5.0598   0.9176   0.6212   C.ar      1 1      0.0000
     3 C3      -3.6890   1.1565   0.4760   C.ar      1 1      0.0000
     4 C8      -2.8661   0.2181  -0.1660   C.ar      1 1      0.0000
     5 C7      -3.4360  -0.9677  -0.6539   C.ar      1 1      0.0000
     6 C6      -4.8067  -1.2087  -0.5091   C.ar      1 1      0.0000
     7 H4      -5.6859   1.6463   1.1261   H         1 1      0.0000
     8 C9      -1.3914   0.5123  -0.3867   C.3       1 1      0.0000
     9 H7      -2.8056  -1.7118  -1.1356   H         1 1      0.0000
    10 H6      -5.2359  -2.1327  -0.8829   H         1 1      0.0000
    11 C10     -0.5739   0.0780   0.8543   C.3       1 1      0.0000
    12 H9A     -1.0217  -0.0210  -1.2695   H         1 1      0.0000
    13 C11      0.9021   0.3306   0.7291   C.3       1 1      0.0000
    14 C12      1.6410  -0.4521  -0.3695   C.3       1 1      0.0000
    15 H12A     1.2639  -0.1338  -1.3517   H         1 1      0.0000
    16 C13      3.1538  -0.4003  -0.3944   C.2       1 1      0.0000
    17 C14      3.8120   0.8958  -0.0205   C.3       1 1      0.0000
    18 H14B     3.2356   1.7259  -0.4439   H         1 1      0.0000
    19 H14A     4.8278   0.9492  -0.4223   H         1 1      0.0000
    20 N        3.8311  -1.4648  -0.7095   N.pl3     1 1      0.0000
    21 HN       3.2403  -2.3117  -0.9025   H         1 1      0.0000
    22 C        5.3158  -1.5813  -0.8096   C.3       1 1      0.0000
    23 H1A      5.5497  -2.6327  -0.9821   H         1 1      0.0000
    24 H1C      5.6799  -0.9847  -1.6523   H         1 1      0.0000
    25 H1B      5.7886  -1.2482   0.1175   H         1 1      0.0000
    26 H10A    -0.9451   0.5988   1.7518   H         1 1      0.0000
    27 H10B    -0.7315  -0.9944   1.0513   H         1 1      0.0000
    28 H9B     -1.2363   1.5815  -0.5681   H         1 1      0.0000
    29 H5      -6.6840  -0.4520   0.2398   H         1 1      0.0000
    30 H3      -3.2557   2.0701   0.8771   H         1 1      0.0000
    31 H12B     1.3477  -1.5112  -0.2823   H         1 1      0.0000
    32 C15      3.8587   1.0572   1.5371   C.3       1 1      0.0000
    33 H15A     3.0829   1.7437   1.8898   H         1 1      0.0000
    34 H15B     3.7349   0.0945   2.0423   H         1 1      0.0000
    35 H15C     4.8321   1.4707   1.8171   H         1 1      0.0000
    36 O2       1.0967   1.7115   0.4959   O.3       1 1      0.0000
    37 H21      0.7251   2.2312   1.2561   H         1 1      0.0000
    38 H22      1.3653   0.0845   1.6836   H         1 1      0.0000
@<TRIPOS>BOND
     1     1     2   ar
     2     1     6   ar
     3     1    29    1
     4     2     3   ar
     5     2     7    1
     6     3     4   ar
     7     3    30    1
     8     4     5   ar
     9     4     8    1
    10     5     6   ar
    11     5     9    1
    12     6    10    1
    13     8    11    1
    14     8    12    1
    15     8    28    1
    16    11    13    1
    17    11    26    1
    18    11    27    1
    19    13    14    1
    20    14    15    1
    21    14    16    1
    22    14    31    1
    23    16    17    1
    24    16    20    2
    25    17    18    1
    26    17    19    1
    27    17    32    1
    28    20    21    1
    29    20    22    1
    30    22    23    1
    31    22    24    1
    32    22    25    1
    33    32    33    1
    34    32    34    1
    35    32    35    1
    36    13    36    1
    37    36    37    1
    38    13    38    1
@<TRIPOS>SUBSTRUCTURE
     1 1           1 GROUP             0 ****  ****    0  
@<TRIPOS>MOLECULE
Molecule Name_00001_00220
    38    38     1     0     0
SMALL
NO_CHARGES
****
Generated from the CSD

@<TRIPOS>ATOM
     1 C5      -5.4586   0.8334   0.1733   C.ar      1 1      0.0000
     2 C4      -4.3696   1.3833   0.8590   C.ar      1 1      0.0000
     3 C3      -3.0718   0.9402   0.5826   C.ar      1 1      0.0000
     4 C8      -2.8488  -0.0562  -0.3805   C.ar      1 1      0.0000
     5 C7      -3.9470  -0.6079  -1.0576   C.ar      1 1      0.0000
     6 C6      -5.2459  -0.1665  -0.7821   C.ar      1 1      0.0000
     7 H4      -4.5317   2.1487   1.6111   H         1 1      0.0000
     8 C9      -1.4330  -0.4841  -0.7306   C.3       1 1      0.0000
     9 H7      -3.7892  -1.3948  -1.7918   H         1 1      0.0000
    10 H6      -6.0889  -0.6056  -1.3057   H         1 1      0.0000
    11 C10     -0.6954  -0.9643   0.5431   C.3       1 1      0.0000
    12 H9A     -1.4484  -1.2942  -1.4682   H         1 1      0.0000
    13 C11      0.7947  -1.0694   0.3797   C.3       1 1      0.0000
    14 C12      1.5620   0.2538   0.2191   C.3       1 1      0.0000
    15 H12A     1.4206   0.8624   1.1234   H         1 1      0.0000
    16 C13      3.0420   0.1924  -0.0936   C.2       1 1      0.0000
    17 C14      3.6324   1.3196  -0.8898   C.3       1 1      0.0000
    18 H14B     2.9196   1.6231  -1.6646   H         1 1      0.0000
    19 H14A     4.5571   1.0077  -1.3837   H         1 1      0.0000
    20 N        3.7541  -0.8026   0.3468   N.pl3     1 1      0.0000
    21 HN       3.2181  -1.4935   0.9289   H         1 1      0.0000
    22 C        5.2098  -1.0327   0.1098   C.3       1 1      0.0000
    23 H1A      5.5065  -1.8922   0.7123   H         1 1      0.0000
    24 H1C      5.3843  -1.2525  -0.9484   H         1 1      0.0000
    25 H1B      5.7891  -0.1566   0.4111   H         1 1      0.0000
    26 H10A    -0.9101  -0.2837   1.3828   H         1 1      0.0000
    27 H10B    -1.0849  -1.9466   0.8547   H         1 1      0.0000
    28 H9B     -0.8800   0.3488  -1.1786   H         1 1      0.0000
    29 H5      -6.4660   1.1738   0.3896   H         1 1      0.0000
    30 H3      -2.2307   1.3610   1.1293   H         1 1      0.0000
    31 H12B     1.0769   0.8274  -0.5879   H         1 1      0.0000
    32 C15      3.9253   2.5493   0.0355   C.3       1 1      0.0000
    33 H15A     3.0094   2.9222   0.5043   H         1 1      0.0000
    34 H15B     4.6458   2.2968   0.8193   H         1 1      0.0000
    35 H15C     4.3473   3.3536  -0.5744   H         1 1      0.0000
    36 O2       1.3163  -1.7498   1.5042   O.3       1 1      0.0000
    37 H21      0.9145  -2.6562   1.5584   H         1 1      0.0000
    38 H22      0.9921  -1.6790  -0.5008   H         1 1      0.0000
@<TRIPOS>BOND
     1     1     2   ar
     2     1     6   ar
     3     1    29    1
     4     2     3   ar
     5     2     7    1
     6     3     4   ar
     7     3    30    1
     8     4     5   ar
     9     4     8    1
    10     5     6   ar
    11     5     9    1
    12     6    10    1
    13     8    11    1
    14     8    12    1
    15     8    28    1
    16    11    13    1
    17    11    26    1
    18    11    27    1
    19    13    14    1
    20    14    15    1
    21    14    16    1
    22    14    31    1
    23    16    17    1
    24    16    20    2
    25    17    18    1
    26    17    19    1
    27    17    32    1
    28    20    21    1
    29    20    22    1
    30    22    23    1
    31    22    24    1
    32    22    25    1
    33    32    33    1
    34    32    34    1
    35    32    35    1
    36    13    36    1
    37    36    37    1
    38    13    38    1
@<TRIPOS>SUBSTRUCTURE
     1 1           1 GROUP             0 ****  ****    0  
@<TRIPOS>MOLECULE
Molecule Name_00001_00221
    38    38     1     0     0
SMALL
NO_CHARGES
****
Generated from the CSD

@<TRIPOS>ATOM
     1 C5      -5.4603   0.7256   0.2363   C.ar      1 1      0.0000
     2 C4      -4.4348   1.0420   1.1344   C.ar      1 1      0.0000
     3 C3      -3.1082   0.7263   0.8221   C.ar      1 1      0.0000
     4 C8      -2.7927   0.0916  -0.3894   C.ar      1 1      0.0000
     5 C7      -3.8280  -0.2294  -1.2805   C.ar      1 1      0.0000
     6 C6      -5.1555   0.0849  -0.9697   C.ar      1 1      0.0000
     7 H4      -4.6686   1.5259   2.0773   H         1 1      0.0000
     8 C9      -1.3445  -0.1848  -0.7584   C.3       1 1      0.0000
     9 H7      -3.5988  -0.7394  -2.2136   H         1 1      0.0000
    10 H6      -5.9494  -0.1750  -1.6625   H         1 1      0.0000
    11 C10     -0.6708  -1.0365   0.3451   C.3       1 1      0.0000
    12 H9A     -1.2871  -0.7178  -1.7139   H         1 1      0.0000
    13 C11      0.8293  -1.0654   0.2602   C.3       1 1      0.0000
    14 C12      1.5598   0.2495   0.5807   C.3       1 1      0.0000
    15 H12A     1.3424   0.5365   1.6193   H         1 1      0.0000
    16 C13      3.0574   0.3095   0.3678   C.2       1 1      0.0000
    17 C14      3.6572   1.6388   0.0127   C.3       1 1      0.0000
    18 H14B     4.7186   1.6373   0.2846   H         1 1      0.0000
    19 H14A     3.1680   2.4483   0.5620   H         1 1      0.0000
    20 N        3.7744  -0.7650   0.5180   N.pl3     1 1      0.0000
    21 HN       3.2273  -1.6120   0.8127   H         1 1      0.0000
    22 C        5.2488  -0.8894   0.3215   C.3       1 1      0.0000
    23 H1A      5.5368  -1.8923   0.6394   H         1 1      0.0000
    24 H1C      5.4954  -0.7585  -0.7371   H         1 1      0.0000
    25 H1B      5.7785  -0.1477   0.9243   H         1 1      0.0000
    26 H10A    -0.9597  -0.6616   1.3403   H         1 1      0.0000
    27 H10B    -1.0452  -2.0717   0.3016   H         1 1      0.0000
    28 H9B     -0.7935   0.7542  -0.8799   H         1 1      0.0000
    29 H5      -6.4900   0.9667   0.4791   H         1 1      0.0000
    30 H3      -2.3170   0.9615   1.5307   H         1 1      0.0000
    31 H12B     1.1061   1.0441  -0.0343   H         1 1      0.0000
    32 C15      3.5313   1.9032  -1.5262   C.3       1 1      0.0000
    33 H15A     4.0582   1.1391  -2.1061   H         1 1      0.0000
    34 H15B     2.4842   1.9274  -1.8430   H         1 1      0.0000
    35 H15C     3.9824   2.8738  -1.7527   H         1 1      0.0000
    36 O2       1.3035  -2.0620   1.1442   O.3       1 1      0.0000
    37 H21      0.9299  -2.9434   0.8804   H         1 1      0.0000
    38 H22      1.1010  -1.3603  -0.7523   H         1 1      0.0000
@<TRIPOS>BOND
     1     1     2   ar
     2     1     6   ar
     3     1    29    1
     4     2     3   ar
     5     2     7    1
     6     3     4   ar
     7     3    30    1
     8     4     5   ar
     9     4     8    1
    10     5     6   ar
    11     5     9    1
    12     6    10    1
    13     8    11    1
    14     8    12    1
    15     8    28    1
    16    11    13    1
    17    11    26    1
    18    11    27    1
    19    13    14    1
    20    14    15    1
    21    14    16    1
    22    14    31    1
    23    16    17    1
    24    16    20    2
    25    17    18    1
    26    17    19    1
    27    17    32    1
    28    20    21    1
    29    20    22    1
    30    22    23    1
    31    22    24    1
    32    22    25    1
    33    32    33    1
    34    32    34    1
    35    32    35    1
    36    13    36    1
    37    36    37    1
    38    13    38    1
@<TRIPOS>SUBSTRUCTURE
     1 1           1 GROUP             0 ****  ****    0  
@<TRIPOS>MOLECULE
Molecule Name_00001_00222
    38    38     1     0     0
SMALL
NO_CHARGES
****
Generated from the CSD

@<TRIPOS>ATOM
     1 C5      -4.1240  -1.4954   0.8503   C.ar      1 1      0.0000
     2 C4      -4.4801  -0.1430   0.9025   C.ar      1 1      0.0000
     3 C3      -3.6806   0.8166   0.2723   C.ar      1 1      0.0000
     4 C8      -2.5181   0.4354  -0.4156   C.ar      1 1      0.0000
     5 C7      -2.1640  -0.9218  -0.4561   C.ar      1 1      0.0000
     6 C6      -2.9620  -1.8830   0.1741   C.ar      1 1      0.0000
     7 H4      -5.3728   0.1633   1.4383   H         1 1      0.0000
     8 C9      -1.6910   1.4704  -1.1603   C.3       1 1      0.0000
     9 H7      -1.2549  -1.2278  -0.9689   H         1 1      0.0000
    10 H6      -2.6747  -2.9290   0.1435   H         1 1      0.0000
    11 C10     -0.6655   2.1193  -0.1989   C.3       1 1      0.0000
    12 H9A     -1.1594   1.0061  -1.9983   H         1 1      0.0000
    13 C11      0.4284   1.1881   0.2423   C.3       1 1      0.0000
    14 C12      1.4405   0.7605  -0.8339   C.3       1 1      0.0000
    15 H12A     1.9620   1.6521  -1.2100   H         1 1      0.0000
    16 C13      2.4737  -0.2854  -0.4730   C.2       1 1      0.0000
    17 C14      3.8650   0.1873  -0.1669   C.3       1 1      0.0000
    18 H14B     4.1249   1.0032  -0.8505   H         1 1      0.0000
    19 H14A     4.5920  -0.6176  -0.3084   H         1 1      0.0000
    20 N        2.1309  -1.5385  -0.4153   N.pl3     1 1      0.0000
    21 HN       1.1139  -1.7178  -0.6083   H         1 1      0.0000
    22 C        3.0223  -2.6948  -0.1046   C.3       1 1      0.0000
    23 H1A      2.3917  -3.5817  -0.0288   H         1 1      0.0000
    24 H1C      3.7483  -2.8325  -0.9123   H         1 1      0.0000
    25 H1B      3.5420  -2.5327   0.8429   H         1 1      0.0000
    26 H10A    -0.2064   3.0004  -0.6755   H         1 1      0.0000
    27 H10B    -1.1808   2.5047   0.6954   H         1 1      0.0000
    28 H9B     -2.3377   2.2484  -1.5807   H         1 1      0.0000
    29 H5      -4.7414  -2.2400   1.3419   H         1 1      0.0000
    30 H3      -3.9547   1.8678   0.3288   H         1 1      0.0000
    31 H12B     0.8713   0.3790  -1.6976   H         1 1      0.0000
    32 C15      3.9528   0.7156   1.3053   C.3       1 1      0.0000
    33 H15A     3.5456   1.7279   1.3901   H         1 1      0.0000
    34 H15B     3.4161   0.0598   1.9976   H         1 1      0.0000
    35 H15C     5.0047   0.7456   1.6043   H         1 1      0.0000
    36 O2       1.1384   1.8074   1.2966   O.3       1 1      0.0000
    37 H21      0.5191   1.9879   2.0516   H         1 1      0.0000
    38 H22     -0.0389   0.2875   0.6380   H         1 1      0.0000
@<TRIPOS>BOND
     1     1     2   ar
     2     1     6   ar
     3     1    29    1
     4     2     3   ar
     5     2     7    1
     6     3     4   ar
     7     3    30    1
     8     4     5   ar
     9     4     8    1
    10     5     6   ar
    11     5     9    1
    12     6    10    1
    13     8    11    1
    14     8    12    1
    15     8    28    1
    16    11    13    1
    17    11    26    1
    18    11    27    1
    19    13    14    1
    20    14    15    1
    21    14    16    1
    22    14    31    1
    23    16    17    1
    24    16    20    2
    25    17    18    1
    26    17    19    1
    27    17    32    1
    28    20    21    1
    29    20    22    1
    30    22    23    1
    31    22    24    1
    32    22    25    1
    33    32    33    1
    34    32    34    1
    35    32    35    1
    36    13    36    1
    37    36    37    1
    38    13    38    1
@<TRIPOS>SUBSTRUCTURE
     1 1           1 GROUP             0 ****  ****    0  
@<TRIPOS>MOLECULE
Molecule Name_00001_00223
    38    38     1     0     0
SMALL
NO_CHARGES
****
Generated from the CSD

@<TRIPOS>ATOM
     1 C5      -4.7768  -0.7066  -1.0456   C.ar      1 1      0.0000
     2 C4      -3.6850  -0.1282  -1.7029   C.ar      1 1      0.0000
     3 C3      -2.6239   0.4042  -0.9628   C.ar      1 1      0.0000
     4 C8      -2.6427   0.3646   0.4401   C.ar      1 1      0.0000
     5 C7      -3.7449  -0.2098   1.0912   C.ar      1 1      0.0000
     6 C6      -4.8075  -0.7423   0.3528   C.ar      1 1      0.0000
     7 H4      -3.6641  -0.0856  -2.7871   H         1 1      0.0000
     8 C9      -1.4565   0.8779   1.2397   C.3       1 1      0.0000
     9 H7      -3.7807  -0.2286   2.1781   H         1 1      0.0000
    10 H6      -5.6589  -1.1770   0.8665   H         1 1      0.0000
    11 C10     -0.2014   0.0261   0.9301   C.3       1 1      0.0000
    12 H9A     -1.2531   1.9262   0.9943   H         1 1      0.0000
    13 C11      1.0279   0.4601   1.6777   C.3       1 1      0.0000
    14 C12      2.2981  -0.3778   1.4540   C.3       1 1      0.0000
    15 H12A     2.1355  -1.3889   1.8533   H         1 1      0.0000
    16 C13      2.8408  -0.4974   0.0459   C.2       1 1      0.0000
    17 C14      4.0585   0.3084  -0.3014   C.3       1 1      0.0000
    18 H14B     4.5650  -0.1569  -1.1543   H         1 1      0.0000
    19 H14A     4.7615   0.3362   0.5360   H         1 1      0.0000
    20 N        2.2642  -1.2969  -0.8024   N.pl3     1 1      0.0000
    21 HN       1.4510  -1.8322  -0.4079   H         1 1      0.0000
    22 C        2.6487  -1.5135  -2.2284   C.3       1 1      0.0000
    23 H1A      2.0317  -2.3270  -2.6126   H         1 1      0.0000
    24 H1C      2.4553  -0.6052  -2.8080   H         1 1      0.0000
    25 H1B      3.7039  -1.7877  -2.3022   H         1 1      0.0000
    26 H10A    -0.3979  -1.0333   1.1612   H         1 1      0.0000
    27 H10B     0.0154   0.0555  -0.1497   H         1 1      0.0000
    28 H9B     -1.6696   0.8341   2.3134   H         1 1      0.0000
    29 H5      -5.6021  -1.1166  -1.6185   H         1 1      0.0000
    30 H3      -1.7848   0.8656  -1.4791   H         1 1      0.0000
    31 H12B     3.0973   0.0502   2.0814   H         1 1      0.0000
    32 C15      3.6548   1.7710  -0.6914   C.3       1 1      0.0000
    33 H15A     2.8181   1.7786  -1.3967   H         1 1      0.0000
    34 H15B     3.3791   2.3577   0.1901   H         1 1      0.0000
    35 H15C     4.5104   2.2537  -1.1729   H         1 1      0.0000
    36 O2       1.3124   1.7988   1.3223   O.3       1 1      0.0000
    37 H21      0.6214   2.3980   1.7091   H         1 1      0.0000
    38 H22      0.7967   0.4388   2.7417   H         1 1      0.0000
@<TRIPOS>BOND
     1     1     2   ar
     2     1     6   ar
     3     1    29    1
     4     2     3   ar
     5     2     7    1
     6     3     4   ar
     7     3    30    1
     8     4     5   ar
     9     4     8    1
    10     5     6   ar
    11     5     9    1
    12     6    10    1
    13     8    11    1
    14     8    12    1
    15     8    28    1
    16    11    13    1
    17    11    26    1
    18    11    27    1
    19    13    14    1
    20    14    15    1
    21    14    16    1
    22    14    31    1
    23    16    17    1
    24    16    20    2
    25    17    18    1
    26    17    19    1
    27    17    32    1
    28    20    21    1
    29    20    22    1
    30    22    23    1
    31    22    24    1
    32    22    25    1
    33    32    33    1
    34    32    34    1
    35    32    35    1
    36    13    36    1
    37    36    37    1
    38    13    38    1
@<TRIPOS>SUBSTRUCTURE
     1 1           1 GROUP             0 ****  ****    0  
@<TRIPOS>MOLECULE
Molecule Name_00001_00224
    38    38     1     0     0
SMALL
NO_CHARGES
****
Generated from the CSD

@<TRIPOS>ATOM
     1 C5      -4.2707   1.1601  -1.1305   C.ar      1 1      0.0000
     2 C4      -3.4413   0.0885  -1.4805   C.ar      1 1      0.0000
     3 C3      -2.5491  -0.4419  -0.5426   C.ar      1 1      0.0000
     4 C8      -2.4761   0.0924   0.7533   C.ar      1 1      0.0000
     5 C7      -3.3054   1.1720   1.0933   C.ar      1 1      0.0000
     6 C6      -4.1980   1.7043   0.1565   C.ar      1 1      0.0000
     7 H4      -3.4844  -0.3270  -2.4821   H         1 1      0.0000
     8 C9      -1.5586  -0.5318   1.7918   C.3       1 1      0.0000
     9 H7      -3.2441   1.6080   2.0880   H         1 1      0.0000
    10 H6      -4.8292   2.5445   0.4273   H         1 1      0.0000
    11 C10     -0.7593  -1.6971   1.1594   C.3       1 1      0.0000
    12 H9A     -0.8605   0.2153   2.1857   H         1 1      0.0000
    13 C11      0.3376  -1.2507   0.2342   C.3       1 1      0.0000
    14 C12      1.5481  -0.5628   0.8875   C.3       1 1      0.0000
    15 H12A     2.0304  -1.2672   1.5798   H         1 1      0.0000
    16 C13      2.6101   0.0300  -0.0139   C.2       1 1      0.0000
    17 C14      2.2825   1.3093  -0.7274   C.3       1 1      0.0000
    18 H14B     1.2376   1.2791  -1.0560   H         1 1      0.0000
    19 H14A     2.9123   1.4363  -1.6125   H         1 1      0.0000
    20 N        3.7639  -0.5592  -0.1263   N.pl3     1 1      0.0000
    21 HN       3.8692  -1.4201   0.4664   H         1 1      0.0000
    22 C        4.9060  -0.1296  -0.9859   C.3       1 1      0.0000
    23 H1A      5.7510  -0.7795  -0.7546   H         1 1      0.0000
    24 H1C      4.6396  -0.2413  -2.0419   H         1 1      0.0000
    25 H1B      5.1738   0.9086  -0.7747   H         1 1      0.0000
    26 H10A    -0.3186  -2.3254   1.9502   H         1 1      0.0000
    27 H10B    -1.4401  -2.3608   0.6027   H         1 1      0.0000
    28 H9B     -2.1398  -0.9084   2.6407   H         1 1      0.0000
    29 H5      -4.9605   1.5746  -1.8583   H         1 1      0.0000
    30 H3      -1.8966  -1.2652  -0.8250   H         1 1      0.0000
    31 H12B     1.1672   0.2494   1.5284   H         1 1      0.0000
    32 C15      2.4749   2.5349   0.2291   C.3       1 1      0.0000
    33 H15A     1.8171   2.4668   1.1011   H         1 1      0.0000
    34 H15B     3.5106   2.6142   0.5733   H         1 1      0.0000
    35 H15C     2.2224   3.4484  -0.3173   H         1 1      0.0000
    36 O2       0.8019  -2.3799  -0.4791   O.3       1 1      0.0000
    37 H21      0.0539  -2.7721  -1.0013   H         1 1      0.0000
    38 H22     -0.0939  -0.5558  -0.4846   H         1 1      0.0000
@<TRIPOS>BOND
     1     1     2   ar
     2     1     6   ar
     3     1    29    1
     4     2     3   ar
     5     2     7    1
     6     3     4   ar
     7     3    30    1
     8     4     5   ar
     9     4     8    1
    10     5     6   ar
    11     5     9    1
    12     6    10    1
    13     8    11    1
    14     8    12    1
    15     8    28    1
    16    11    13    1
    17    11    26    1
    18    11    27    1
    19    13    14    1
    20    14    15    1
    21    14    16    1
    22    14    31    1
    23    16    17    1
    24    16    20    2
    25    17    18    1
    26    17    19    1
    27    17    32    1
    28    20    21    1
    29    20    22    1
    30    22    23    1
    31    22    24    1
    32    22    25    1
    33    32    33    1
    34    32    34    1
    35    32    35    1
    36    13    36    1
    37    36    37    1
    38    13    38    1
@<TRIPOS>SUBSTRUCTURE
     1 1           1 GROUP             0 ****  ****    0  
@<TRIPOS>MOLECULE
Molecule Name_00001_00225
    38    38     1     0     0
SMALL
NO_CHARGES
****
Generated from the CSD

@<TRIPOS>ATOM
     1 C5      -4.1428   1.5926  -0.7613   C.ar      1 1      0.0000
     2 C4      -3.2505   0.7552  -1.4403   C.ar      1 1      0.0000
     3 C3      -2.4252  -0.1175  -0.7230   C.ar      1 1      0.0000
     4 C8      -2.4826  -0.1623   0.6787   C.ar      1 1      0.0000
     5 C7      -3.3743   0.6865   1.3520   C.ar      1 1      0.0000
     6 C6      -4.2001   1.5605   0.6364   C.ar      1 1      0.0000
     7 H4      -3.1927   0.7874  -2.5235   H         1 1      0.0000
     8 C9      -1.6377  -1.1619   1.4513   C.3       1 1      0.0000
     9 H7      -3.4140   0.6757   2.4389   H         1 1      0.0000
    10 H6      -4.8804   2.2185   1.1674   H         1 1      0.0000
    11 C10     -0.7478  -1.9687   0.4747   C.3       1 1      0.0000
    12 H9A     -1.0020  -0.6454   2.1791   H         1 1      0.0000
    13 C11      0.4092  -1.1871  -0.0810   C.3       1 1      0.0000
    14 C12      1.5349  -0.8336   0.9055   C.3       1 1      0.0000
    15 H12A     1.9791  -1.7624   1.2905   H         1 1      0.0000
    16 C13      2.6501   0.0720   0.4281   C.2       1 1      0.0000
    17 C14      2.3423   1.5329   0.2733   C.3       1 1      0.0000
    18 H14B     3.2759   2.1038   0.3288   H         1 1      0.0000
    19 H14A     1.6841   1.8813   1.0743   H         1 1      0.0000
    20 N        3.8286  -0.4246   0.1919   N.pl3     1 1      0.0000
    21 HN       3.9113  -1.4534   0.3876   H         1 1      0.0000
    22 C        5.0255   0.3147  -0.3070   C.3       1 1      0.0000
    23 H1A      5.8689  -0.3769  -0.2845   H         1 1      0.0000
    24 H1C      4.8552   0.6474  -1.3359   H         1 1      0.0000
    25 H1B      5.2388   1.1734   0.3342   H         1 1      0.0000
    26 H10A    -0.3560  -2.8682   0.9766   H         1 1      0.0000
    27 H10B    -1.3550  -2.3425  -0.3651   H         1 1      0.0000
    28 H9B     -2.2770  -1.8509   2.0141   H         1 1      0.0000
    29 H5      -4.7807   2.2724  -1.3165   H         1 1      0.0000
    30 H3      -1.7233  -0.7554  -1.2556   H         1 1      0.0000
    31 H12B     1.0729  -0.3543   1.7843   H         1 1      0.0000
    32 C15      1.6657   1.8063  -1.1130   C.3       1 1      0.0000
    33 H15A     2.1148   1.1961  -1.9026   H         1 1      0.0000
    34 H15B     0.5907   1.6052  -1.0793   H         1 1      0.0000
    35 H15C     1.8115   2.8592  -1.3720   H         1 1      0.0000
    36 O2       0.9712  -1.9262  -1.1474   O.3       1 1      0.0000
    37 H21      0.2847  -2.0660  -1.8512   H         1 1      0.0000
    38 H22      0.0182  -0.2563  -0.4892   H         1 1      0.0000
@<TRIPOS>BOND
     1     1     2   ar
     2     1     6   ar
     3     1    29    1
     4     2     3   ar
     5     2     7    1
     6     3     4   ar
     7     3    30    1
     8     4     5   ar
     9     4     8    1
    10     5     6   ar
    11     5     9    1
    12     6    10    1
    13     8    11    1
    14     8    12    1
    15     8    28    1
    16    11    13    1
    17    11    26    1
    18    11    27    1
    19    13    14    1
    20    14    15    1
    21    14    16    1
    22    14    31    1
    23    16    17    1
    24    16    20    2
    25    17    18    1
    26    17    19    1
    27    17    32    1
    28    20    21    1
    29    20    22    1
    30    22    23    1
    31    22    24    1
    32    22    25    1
    33    32    33    1
    34    32    34    1
    35    32    35    1
    36    13    36    1
    37    36    37    1
    38    13    38    1
@<TRIPOS>SUBSTRUCTURE
     1 1           1 GROUP             0 ****  ****    0  
@<TRIPOS>MOLECULE
Molecule Name_00001_00226
    38    38     1     0     0
SMALL
NO_CHARGES
****
Generated from the CSD

@<TRIPOS>ATOM
     1 C5      -4.4037  -1.1467   1.0511   C.ar      1 1      0.0000
     2 C4      -3.5062  -0.2092   1.5748   C.ar      1 1      0.0000
     3 C3      -2.5864   0.4257   0.7334   C.ar      1 1      0.0000
     4 C8      -2.5536   0.1308  -0.6384   C.ar      1 1      0.0000
     5 C7      -3.4516  -0.8163  -1.1538   C.ar      1 1      0.0000
     6 C6      -4.3718  -1.4529  -0.3138   C.ar      1 1      0.0000
     7 H4      -3.5180   0.0205   2.6354   H         1 1      0.0000
     8 C9      -1.6032   0.8745  -1.5623   C.3       1 1      0.0000
     9 H7      -3.4228  -1.0684  -2.2115   H         1 1      0.0000
    10 H6      -5.0565  -2.1898  -0.7212   H         1 1      0.0000
    11 C10     -0.7284   1.8548  -0.7434   C.3       1 1      0.0000
    12 H9A     -0.9560   0.1691  -2.0953   H         1 1      0.0000
    13 C11      0.3422   1.1818   0.0686   C.3       1 1      0.0000
    14 C12      1.5034   0.5497  -0.7172   C.3       1 1      0.0000
    15 H12A     2.0381   1.3393  -1.2639   H         1 1      0.0000
    16 C13      2.5160  -0.2811   0.0418   C.2       1 1      0.0000
    17 C14      3.4959   0.4447   0.9169   C.3       1 1      0.0000
    18 H14B     3.8726  -0.2441   1.6813   H         1 1      0.0000
    19 H14A     3.0177   1.2866   1.4257   H         1 1      0.0000
    20 N        2.4963  -1.5772  -0.0629   N.pl3     1 1      0.0000
    21 HN       1.7269  -1.9498  -0.6734   H         1 1      0.0000
    22 C        3.4320  -2.5400   0.5893   C.3       1 1      0.0000
    23 H1A      3.0631  -3.5453   0.3810   H         1 1      0.0000
    24 H1C      4.4360  -2.4264   0.1681   H         1 1      0.0000
    25 H1B      3.4577  -2.3758   1.6693   H         1 1      0.0000
    26 H10A    -0.2523   2.5872  -1.4152   H         1 1      0.0000
    27 H10B    -1.3630   2.4478  -0.0656   H         1 1      0.0000
    28 H9B     -2.1632   1.4333  -2.3201   H         1 1      0.0000
    29 H5      -5.1151  -1.6424   1.7035   H         1 1      0.0000
    30 H3      -1.8816   1.1427   1.1488   H         1 1      0.0000
    31 H12B     1.0683  -0.0930  -1.5002   H         1 1      0.0000
    32 C15      4.7052   0.9673   0.0691   C.3       1 1      0.0000
    33 H15A     5.2409   0.1426  -0.4110   H         1 1      0.0000
    34 H15B     4.3780   1.6720  -0.7013   H         1 1      0.0000
    35 H15C     5.4024   1.4840   0.7352   H         1 1      0.0000
    36 O2       0.8807   2.1327   0.9658   O.3       1 1      0.0000
    37 H21      0.1616   2.4696   1.5621   H         1 1      0.0000
    38 H22     -0.1293   0.3964   0.6574   H         1 1      0.0000
@<TRIPOS>BOND
     1     1     2   ar
     2     1     6   ar
     3     1    29    1
     4     2     3   ar
     5     2     7    1
     6     3     4   ar
     7     3    30    1
     8     4     5   ar
     9     4     8    1
    10     5     6   ar
    11     5     9    1
    12     6    10    1
    13     8    11    1
    14     8    12    1
    15     8    28    1
    16    11    13    1
    17    11    26    1
    18    11    27    1
    19    13    14    1
    20    14    15    1
    21    14    16    1
    22    14    31    1
    23    16    17    1
    24    16    20    2
    25    17    18    1
    26    17    19    1
    27    17    32    1
    28    20    21    1
    29    20    22    1
    30    22    23    1
    31    22    24    1
    32    22    25    1
    33    32    33    1
    34    32    34    1
    35    32    35    1
    36    13    36    1
    37    36    37    1
    38    13    38    1
@<TRIPOS>SUBSTRUCTURE
     1 1           1 GROUP             0 ****  ****    0  
@<TRIPOS>MOLECULE
Molecule Name_00001_00227
    38    38     1     0     0
SMALL
NO_CHARGES
****
Generated from the CSD

@<TRIPOS>ATOM
     1 C5      -4.7120   1.3952  -0.6444   C.ar      1 1      0.0000
     2 C4      -4.9101   0.0101  -0.6687   C.ar      1 1      0.0000
     3 C3      -3.8517  -0.8542  -0.3684   C.ar      1 1      0.0000
     4 C8      -2.5857  -0.3440  -0.0415   C.ar      1 1      0.0000
     5 C7      -2.3936   1.0460  -0.0275   C.ar      1 1      0.0000
     6 C6      -3.4507   1.9119  -0.3281   C.ar      1 1      0.0000
     7 H4      -5.8830  -0.3950  -0.9276   H         1 1      0.0000
     8 C9      -1.4575  -1.2821   0.3547   C.3       1 1      0.0000
     9 H7      -1.4121   1.4534   0.2047   H         1 1      0.0000
    10 H6      -3.2892   2.9851  -0.3223   H         1 1      0.0000
    11 C10     -0.1757  -0.4690   0.6594   C.3       1 1      0.0000
    12 H9A     -1.7362  -1.8652   1.2395   H         1 1      0.0000
    13 C11      0.9996  -1.3144   1.0619   C.3       1 1      0.0000
    14 C12      2.3120  -0.5686   1.3565   C.3       1 1      0.0000
    15 H12A     3.0129  -1.2571   1.8492   H         1 1      0.0000
    16 C13      3.0283   0.1064   0.2062   C.2       1 1      0.0000
    17 C14      2.9776   1.6049   0.1380   C.3       1 1      0.0000
    18 H14B     3.8358   1.9668  -0.4391   H         1 1      0.0000
    19 H14A     3.0324   2.0444   1.1381   H         1 1      0.0000
    20 N        3.6758  -0.6130  -0.6624   N.pl3     1 1      0.0000
    21 HN       3.6645  -1.6445  -0.4637   H         1 1      0.0000
    22 C        4.4086  -0.1165  -1.8642   C.3       1 1      0.0000
    23 H1A      4.9278  -0.9687  -2.3048   H         1 1      0.0000
    24 H1C      3.6986   0.2921  -2.5905   H         1 1      0.0000
    25 H1B      5.1355   0.6481  -1.5797   H         1 1      0.0000
    26 H10A     0.1078   0.1321  -0.2196   H         1 1      0.0000
    27 H10B    -0.3752   0.2599   1.4611   H         1 1      0.0000
    28 H9B     -1.2519  -1.9965  -0.4500   H         1 1      0.0000
    29 H5      -5.5312   2.0663  -0.8808   H         1 1      0.0000
    30 H3      -4.0080  -1.9301  -0.4032   H         1 1      0.0000
    31 H12B     2.0962   0.2053   2.1115   H         1 1      0.0000
    32 C15      1.6607   2.0771  -0.5669   C.3       1 1      0.0000
    33 H15A     1.4758   1.5115  -1.4854   H         1 1      0.0000
    34 H15B     0.7945   1.9719   0.0932   H         1 1      0.0000
    35 H15C     1.7653   3.1332  -0.8328   H         1 1      0.0000
    36 O2       0.6410  -2.0512   2.2143   O.3       1 1      0.0000
    37 H21     -0.0171  -2.7525   1.9672   H         1 1      0.0000
    38 H22      1.1917  -2.0238   0.2583   H         1 1      0.0000
@<TRIPOS>BOND
     1     1     2   ar
     2     1     6   ar
     3     1    29    1
     4     2     3   ar
     5     2     7    1
     6     3     4   ar
     7     3    30    1
     8     4     5   ar
     9     4     8    1
    10     5     6   ar
    11     5     9    1
    12     6    10    1
    13     8    11    1
    14     8    12    1
    15     8    28    1
    16    11    13    1
    17    11    26    1
    18    11    27    1
    19    13    14    1
    20    14    15    1
    21    14    16    1
    22    14    31    1
    23    16    17    1
    24    16    20    2
    25    17    18    1
    26    17    19    1
    27    17    32    1
    28    20    21    1
    29    20    22    1
    30    22    23    1
    31    22    24    1
    32    22    25    1
    33    32    33    1
    34    32    34    1
    35    32    35    1
    36    13    36    1
    37    36    37    1
    38    13    38    1
@<TRIPOS>SUBSTRUCTURE
     1 1           1 GROUP             0 ****  ****    0  
@<TRIPOS>MOLECULE
Molecule Name_00001_00228
    38    38     1     0     0
SMALL
NO_CHARGES
****
Generated from the CSD

@<TRIPOS>ATOM
     1 C5      -4.9413   0.6360  -0.6271   C.ar      1 1      0.0000
     2 C4      -5.0243  -0.2999   0.4101   C.ar      1 1      0.0000
     3 C3      -3.8670  -0.7003   1.0864   C.ar      1 1      0.0000
     4 C8      -2.6160  -0.1706   0.7337   C.ar      1 1      0.0000
     5 C7      -2.5406   0.7611  -0.3128   C.ar      1 1      0.0000
     6 C6      -3.6969   1.1623  -0.9909   C.ar      1 1      0.0000
     7 H4      -5.9856  -0.7213   0.6857   H         1 1      0.0000
     8 C9      -1.3708  -0.5522   1.5172   C.3       1 1      0.0000
     9 H7      -1.5746   1.1639  -0.6090   H         1 1      0.0000
    10 H6      -3.6264   1.8775  -1.8041   H         1 1      0.0000
    11 C10     -0.1235   0.1117   0.8843   C.3       1 1      0.0000
    12 H9A     -1.4615  -0.2327   2.5613   H         1 1      0.0000
    13 C11      0.2925  -0.4988  -0.4243   C.3       1 1      0.0000
    14 C12      1.4970   0.1466  -1.1300   C.3       1 1      0.0000
    15 H12A     1.2679   1.2015  -1.3375   H         1 1      0.0000
    16 C13      2.8499   0.0712  -0.4550   C.2       1 1      0.0000
    17 C14      3.9765   0.8534  -1.0648   C.3       1 1      0.0000
    18 H14B     3.9035   0.7954  -2.1565   H         1 1      0.0000
    19 H14A     4.9450   0.4413  -0.7677   H         1 1      0.0000
    20 N        2.9930  -0.6356   0.6272   N.pl3     1 1      0.0000
    21 HN       2.1091  -1.0913   0.9658   H         1 1      0.0000
    22 C        4.2535  -0.8401   1.4000   C.3       1 1      0.0000
    23 H1A      3.9949  -1.3885   2.3068   H         1 1      0.0000
    24 H1C      4.9614  -1.4292   0.8081   H         1 1      0.0000
    25 H1B      4.6979   0.1216   1.6677   H         1 1      0.0000
    26 H10A    -0.3066   1.1871   0.7284   H         1 1      0.0000
    27 H10B     0.7263   0.0571   1.5834   H         1 1      0.0000
    28 H9B     -1.2396  -1.6399   1.5235   H         1 1      0.0000
    29 H5      -5.8378   0.9445  -1.1547   H         1 1      0.0000
    30 H3      -3.9360  -1.4390   1.8820   H         1 1      0.0000
    31 H12B     1.5958  -0.3231  -2.1225   H         1 1      0.0000
    32 C15      3.8958   2.3573  -0.6334   C.3       1 1      0.0000
    33 H15A     2.9593   2.8169  -0.9642   H         1 1      0.0000
    34 H15B     3.9786   2.4663   0.4522   H         1 1      0.0000
    35 H15C     4.7242   2.8998  -1.0985   H         1 1      0.0000
    36 O2       0.5889  -1.8634  -0.2017   O.3       1 1      0.0000
    37 H21     -0.2533  -2.3621  -0.0347   H         1 1      0.0000
    38 H22     -0.5584  -0.4481  -1.1021   H         1 1      0.0000
@<TRIPOS>BOND
     1     1     2   ar
     2     1     6   ar
     3     1    29    1
     4     2     3   ar
     5     2     7    1
     6     3     4   ar
     7     3    30    1
     8     4     5   ar
     9     4     8    1
    10     5     6   ar
    11     5     9    1
    12     6    10    1
    13     8    11    1
    14     8    12    1
    15     8    28    1
    16    11    13    1
    17    11    26    1
    18    11    27    1
    19    13    14    1
    20    14    15    1
    21    14    16    1
    22    14    31    1
    23    16    17    1
    24    16    20    2
    25    17    18    1
    26    17    19    1
    27    17    32    1
    28    20    21    1
    29    20    22    1
    30    22    23    1
    31    22    24    1
    32    22    25    1
    33    32    33    1
    34    32    34    1
    35    32    35    1
    36    13    36    1
    37    36    37    1
    38    13    38    1
@<TRIPOS>SUBSTRUCTURE
     1 1           1 GROUP             0 ****  ****    0  
@<TRIPOS>MOLECULE
Molecule Name_00001_00229
    38    38     1     0     0
SMALL
NO_CHARGES
****
Generated from the CSD

@<TRIPOS>ATOM
     1 C5      -4.9944   0.9374  -0.0318   C.ar      1 1      0.0000
     2 C4      -5.0575  -0.4242  -0.3489   C.ar      1 1      0.0000
     3 C3      -3.9093  -1.2184  -0.2584   C.ar      1 1      0.0000
     4 C8      -2.6874  -0.6609   0.1493   C.ar      1 1      0.0000
     5 C7      -2.6312   0.7068   0.4576   C.ar      1 1      0.0000
     6 C6      -3.7783   1.5029   0.3670   C.ar      1 1      0.0000
     7 H4      -5.9955  -0.8636  -0.6726   H         1 1      0.0000
     8 C9      -1.4590  -1.5400   0.3167   C.3       1 1      0.0000
     9 H7      -1.6859   1.1550   0.7555   H         1 1      0.0000
    10 H6      -3.7219   2.5613   0.6000   H         1 1      0.0000
    11 C10     -0.2367  -0.6726   0.7046   C.3       1 1      0.0000
    12 H9A     -1.6297  -2.2942   1.0929   H         1 1      0.0000
    13 C11      0.2949   0.1678  -0.4221   C.3       1 1      0.0000
    14 C12      1.4799   1.0902  -0.0897   C.3       1 1      0.0000
    15 H12A     1.1792   1.7882   0.7043   H         1 1      0.0000
    16 C13      2.7970   0.4545   0.3012   C.2       1 1      0.0000
    17 C14      3.8886   1.3606   0.7915   C.3       1 1      0.0000
    18 H14B     4.5904   0.7796   1.4002   H         1 1      0.0000
    19 H14A     3.4819   2.1616   1.4154   H         1 1      0.0000
    20 N        2.9385  -0.8360   0.2263   N.pl3     1 1      0.0000
    21 HN       2.0769  -1.3477  -0.0891   H         1 1      0.0000
    22 C        4.1688  -1.6194   0.5437   C.3       1 1      0.0000
    23 H1A      3.9070  -2.6766   0.4832   H         1 1      0.0000
    24 H1C      4.9514  -1.3959  -0.1884   H         1 1      0.0000
    25 H1B      4.5207  -1.3863   1.5516   H         1 1      0.0000
    26 H10A    -0.4960  -0.0098   1.5459   H         1 1      0.0000
    27 H10B     0.5767  -1.3153   1.0775   H         1 1      0.0000
    28 H9B     -1.2425  -2.0780  -0.6128   H         1 1      0.0000
    29 H5      -5.8835   1.5550  -0.1052   H         1 1      0.0000
    30 H3      -3.9614  -2.2729  -0.5203   H         1 1      0.0000
    31 H12B     1.6679   1.7259  -0.9706   H         1 1      0.0000
    32 C15      4.6663   1.9852  -0.4166   C.3       1 1      0.0000
    33 H15A     5.1335   1.2107  -1.0327   H         1 1      0.0000
    34 H15B     4.0063   2.5882  -1.0475   H         1 1      0.0000
    35 H15C     5.4569   2.6330  -0.0266   H         1 1      0.0000
    36 O2       0.6865  -0.6952  -1.4715   O.3       1 1      0.0000
    37 H21     -0.1212  -1.0785  -1.9037   H         1 1      0.0000
    38 H22     -0.5204   0.7902  -0.7881   H         1 1      0.0000
@<TRIPOS>BOND
     1     1     2   ar
     2     1     6   ar
     3     1    29    1
     4     2     3   ar
     5     2     7    1
     6     3     4   ar
     7     3    30    1
     8     4     5   ar
     9     4     8    1
    10     5     6   ar
    11     5     9    1
    12     6    10    1
    13     8    11    1
    14     8    12    1
    15     8    28    1
    16    11    13    1
    17    11    26    1
    18    11    27    1
    19    13    14    1
    20    14    15    1
    21    14    16    1
    22    14    31    1
    23    16    17    1
    24    16    20    2
    25    17    18    1
    26    17    19    1
    27    17    32    1
    28    20    21    1
    29    20    22    1
    30    22    23    1
    31    22    24    1
    32    22    25    1
    33    32    33    1
    34    32    34    1
    35    32    35    1
    36    13    36    1
    37    36    37    1
    38    13    38    1
@<TRIPOS>SUBSTRUCTURE
     1 1           1 GROUP             0 ****  ****    0  
@<TRIPOS>MOLECULE
Molecule Name_00001_00230
    38    38     1     0     0
SMALL
NO_CHARGES
****
Generated from the CSD

@<TRIPOS>ATOM
     1 C5      -4.5418  -1.1276  -0.6988   C.ar      1 1      0.0000
     2 C4      -4.6232  -0.7170   0.6366   C.ar      1 1      0.0000
     3 C3      -3.7097   0.2156   1.1395   C.ar      1 1      0.0000
     4 C8      -2.7063   0.7470   0.3143   C.ar      1 1      0.0000
     5 C7      -2.6268   0.3237  -1.0212   C.ar      1 1      0.0000
     6 C6      -3.5391  -0.6095  -1.5258   C.ar      1 1      0.0000
     7 H4      -5.3905  -1.1273   1.2852   H         1 1      0.0000
     8 C9      -1.7610   1.8134   0.8425   C.3       1 1      0.0000
     9 H7      -1.8415   0.7129  -1.6654   H         1 1      0.0000
    10 H6      -3.4637  -0.9360  -2.5580   H         1 1      0.0000
    11 C10     -0.5508   1.1479   1.5421   C.3       1 1      0.0000
    12 H9A     -1.4031   2.4482   0.0244   H         1 1      0.0000
    13 C11      0.3754   0.4291   0.6021   C.3       1 1      0.0000
    14 C12      1.8651   0.4151   0.9844   C.3       1 1      0.0000
    15 H12A     1.9832  -0.1003   1.9480   H         1 1      0.0000
    16 C13      2.8537  -0.1721  -0.0003   C.2       1 1      0.0000
    17 C14      3.1858   0.6377  -1.2197   C.3       1 1      0.0000
    18 H14B     2.2763   1.1297  -1.5820   H         1 1      0.0000
    19 H14A     3.5679  -0.0006  -2.0214   H         1 1      0.0000
    20 N        3.3969  -1.3285   0.2421   N.pl3     1 1      0.0000
    21 HN       3.1065  -1.7596   1.1550   H         1 1      0.0000
    22 C        4.3629  -2.0614  -0.6284   C.3       1 1      0.0000
    23 H1A      4.7006  -2.9384  -0.0746   H         1 1      0.0000
    24 H1C      3.8650  -2.3820  -1.5491   H         1 1      0.0000
    25 H1B      5.2197  -1.4266  -0.8671   H         1 1      0.0000
    26 H10A     0.0279   1.9046   2.0961   H         1 1      0.0000
    27 H10B    -0.9033   0.4333   2.3030   H         1 1      0.0000
    28 H9B     -2.2782   2.4664   1.5541   H         1 1      0.0000
    29 H5      -5.2475  -1.8537  -1.0889   H         1 1      0.0000
    30 H3      -3.7690   0.5199   2.1822   H         1 1      0.0000
    31 H12B     2.1714   1.4561   1.1797   H         1 1      0.0000
    32 C15      4.2497   1.7350  -0.8757   C.3       1 1      0.0000
    33 H15A     3.8770   2.4260  -0.1133   H         1 1      0.0000
    34 H15B     5.1837   1.2885  -0.5213   H         1 1      0.0000
    35 H15C     4.4644   2.3104  -1.7810   H         1 1      0.0000
    36 O2      -0.0641  -0.9098   0.4853   O.3       1 1      0.0000
    37 H21     -0.5055  -1.0377  -0.3949   H         1 1      0.0000
    38 H22      0.2862   0.8966  -0.3773   H         1 1      0.0000
@<TRIPOS>BOND
     1     1     2   ar
     2     1     6   ar
     3     1    29    1
     4     2     3   ar
     5     2     7    1
     6     3     4   ar
     7     3    30    1
     8     4     5   ar
     9     4     8    1
    10     5     6   ar
    11     5     9    1
    12     6    10    1
    13     8    11    1
    14     8    12    1
    15     8    28    1
    16    11    13    1
    17    11    26    1
    18    11    27    1
    19    13    14    1
    20    14    15    1
    21    14    16    1
    22    14    31    1
    23    16    17    1
    24    16    20    2
    25    17    18    1
    26    17    19    1
    27    17    32    1
    28    20    21    1
    29    20    22    1
    30    22    23    1
    31    22    24    1
    32    22    25    1
    33    32    33    1
    34    32    34    1
    35    32    35    1
    36    13    36    1
    37    36    37    1
    38    13    38    1
@<TRIPOS>SUBSTRUCTURE
     1 1           1 GROUP             0 ****  ****    0  
@<TRIPOS>MOLECULE
Molecule Name_00001_00231
    38    38     1     0     0
SMALL
NO_CHARGES
****
Generated from the CSD

@<TRIPOS>ATOM
     1 C5      -4.3685  -0.7057  -1.1228   C.ar      1 1      0.0000
     2 C4      -4.5136  -0.7721   0.2676   C.ar      1 1      0.0000
     3 C3      -3.6281  -0.0771   1.0982   C.ar      1 1      0.0000
     4 C8      -2.5892   0.6904   0.5489   C.ar      1 1      0.0000
     5 C7      -2.4459   0.7450  -0.8459   C.ar      1 1      0.0000
     6 C6      -3.3302   0.0500  -1.6783   C.ar      1 1      0.0000
     7 H4      -5.3088  -1.3688   0.7027   H         1 1      0.0000
     8 C9      -1.6735   1.5022   1.4503   C.3       1 1      0.0000
     9 H7      -1.6328   1.3200  -1.2833   H         1 1      0.0000
    10 H6      -3.2054   0.0925  -2.7555   H         1 1      0.0000
    11 C10     -0.4948   0.6237   1.9359   C.3       1 1      0.0000
    12 H9A     -1.2802   2.3727   0.9136   H         1 1      0.0000
    13 C11      0.4769   0.2555   0.8504   C.3       1 1      0.0000
    14 C12      1.9472   0.0941   1.2720   C.3       1 1      0.0000
    15 H12A     2.0220  -0.7194   2.0074   H         1 1      0.0000
    16 C13      2.9828  -0.1360   0.1921   C.2       1 1      0.0000
    17 C14      3.3685   1.0356  -0.6632   C.3       1 1      0.0000
    18 H14B     4.3609   0.8556  -1.0913   H         1 1      0.0000
    19 H14A     3.4167   1.9538  -0.0708   H         1 1      0.0000
    20 N        3.5183  -1.3127   0.0513   N.pl3     1 1      0.0000
    21 HN       3.1872  -2.0246   0.7493   H         1 1      0.0000
    22 C        4.5267  -1.7182  -0.9718   C.3       1 1      0.0000
    23 H1A      4.8414  -2.7354  -0.7344   H         1 1      0.0000
    24 H1C      4.0735  -1.7009  -1.9682   H         1 1      0.0000
    25 H1B      5.3914  -1.0508  -0.9416   H         1 1      0.0000
    26 H10A     0.0546   1.1401   2.7396   H         1 1      0.0000
    27 H10B    -0.8798  -0.3024   2.3919   H         1 1      0.0000
    28 H9B     -2.2258   1.8810   2.3173   H         1 1      0.0000
    29 H5      -5.0525  -1.2473  -1.7678   H         1 1      0.0000
    30 H3      -3.7371  -0.1444   2.1784   H         1 1      0.0000
    31 H12B     2.2401   1.0029   1.8231   H         1 1      0.0000
    32 C15      2.3417   1.2227  -1.8315   C.3       1 1      0.0000
    33 H15A     1.4092   0.6857  -1.6319   H         1 1      0.0000
    34 H15B     2.1123   2.2798  -1.9961   H         1 1      0.0000
    35 H15C     2.7781   0.8176  -2.7492   H         1 1      0.0000
    36 O2       0.0483  -0.9585   0.2658   O.3       1 1      0.0000
    37 H21     -0.2474  -0.7904  -0.6672   H         1 1      0.0000
    38 H22      0.4318   1.0290   0.0852   H         1 1      0.0000
@<TRIPOS>BOND
     1     1     2   ar
     2     1     6   ar
     3     1    29    1
     4     2     3   ar
     5     2     7    1
     6     3     4   ar
     7     3    30    1
     8     4     5   ar
     9     4     8    1
    10     5     6   ar
    11     5     9    1
    12     6    10    1
    13     8    11    1
    14     8    12    1
    15     8    28    1
    16    11    13    1
    17    11    26    1
    18    11    27    1
    19    13    14    1
    20    14    15    1
    21    14    16    1
    22    14    31    1
    23    16    17    1
    24    16    20    2
    25    17    18    1
    26    17    19    1
    27    17    32    1
    28    20    21    1
    29    20    22    1
    30    22    23    1
    31    22    24    1
    32    22    25    1
    33    32    33    1
    34    32    34    1
    35    32    35    1
    36    13    36    1
    37    36    37    1
    38    13    38    1
@<TRIPOS>SUBSTRUCTURE
     1 1           1 GROUP             0 ****  ****    0  
@<TRIPOS>MOLECULE
Molecule Name_00001_00232
    38    38     1     0     0
SMALL
NO_CHARGES
****
Generated from the CSD

@<TRIPOS>ATOM
     1 C5      -4.4772   1.2393   0.8780   C.ar      1 1      0.0000
     2 C4      -4.5665   0.9030  -0.4775   C.ar      1 1      0.0000
     3 C3      -3.6955  -0.0465  -1.0224   C.ar      1 1      0.0000
     4 C8      -2.7270  -0.6691  -0.2195   C.ar      1 1      0.0000
     5 C7      -2.6390  -0.3201   1.1367   C.ar      1 1      0.0000
     6 C6      -3.5088   0.6298   1.6834   C.ar      1 1      0.0000
     7 H4      -5.3066   1.3840  -1.1088   H         1 1      0.0000
     8 C9      -1.8306  -1.7523  -0.7966   C.3       1 1      0.0000
     9 H7      -1.8797  -0.7807   1.7649   H         1 1      0.0000
    10 H6      -3.4269   0.8983   2.7317   H         1 1      0.0000
    11 C10     -0.5828  -1.1123  -1.4525   C.3       1 1      0.0000
    12 H9A     -1.5119  -2.4457  -0.0103   H         1 1      0.0000
    13 C11      0.3691  -0.4900  -0.4702   C.3       1 1      0.0000
    14 C12      1.8611  -0.5302  -0.8415   C.3       1 1      0.0000
    15 H12A     2.0162   0.0442  -1.7657   H         1 1      0.0000
    16 C13      2.8700  -0.0679   0.1881   C.2       1 1      0.0000
    17 C14      2.9696   1.4064   0.4517   C.3       1 1      0.0000
    18 H14B     3.4036   1.5644   1.4453   H         1 1      0.0000
    19 H14A     1.9814   1.8747   0.4354   H         1 1      0.0000
    20 N        3.5931  -0.9434   0.8219   N.pl3     1 1      0.0000
    21 HN       3.3839  -1.9413   0.5690   H         1 1      0.0000
    22 C        4.6469  -0.6617   1.8408   C.3       1 1      0.0000
    23 H1A      4.9710  -1.6202   2.2485   H         1 1      0.0000
    24 H1C      5.4978  -0.1613   1.3676   H         1 1      0.0000
    25 H1B      4.2452  -0.0391   2.6440   H         1 1      0.0000
    26 H10A    -0.0370  -1.8671  -2.0414   H         1 1      0.0000
    27 H10B    -0.8927  -0.3427  -2.1774   H         1 1      0.0000
    28 H9B     -2.3728  -2.3410  -1.5447   H         1 1      0.0000
    29 H5      -5.1498   1.9783   1.3009   H         1 1      0.0000
    30 H3      -3.7601  -0.2930  -2.0800   H         1 1      0.0000
    31 H12B     2.1129  -1.5700  -1.1077   H         1 1      0.0000
    32 C15      3.8890   2.0928  -0.6150   C.3       1 1      0.0000
    33 H15A     4.9040   1.6845  -0.5879   H         1 1      0.0000
    34 H15B     3.4868   1.9728  -1.6255   H         1 1      0.0000
    35 H15C     3.9462   3.1622  -0.3915   H         1 1      0.0000
    36 O2      -0.0050   0.8611  -0.2865   O.3       1 1      0.0000
    37 H21     -0.3251   0.9923   0.6443   H         1 1      0.0000
    38 H22      0.2481  -1.0027   0.4829   H         1 1      0.0000
@<TRIPOS>BOND
     1     1     2   ar
     2     1     6   ar
     3     1    29    1
     4     2     3   ar
     5     2     7    1
     6     3     4   ar
     7     3    30    1
     8     4     5   ar
     9     4     8    1
    10     5     6   ar
    11     5     9    1
    12     6    10    1
    13     8    11    1
    14     8    12    1
    15     8    28    1
    16    11    13    1
    17    11    26    1
    18    11    27    1
    19    13    14    1
    20    14    15    1
    21    14    16    1
    22    14    31    1
    23    16    17    1
    24    16    20    2
    25    17    18    1
    26    17    19    1
    27    17    32    1
    28    20    21    1
    29    20    22    1
    30    22    23    1
    31    22    24    1
    32    22    25    1
    33    32    33    1
    34    32    34    1
    35    32    35    1
    36    13    36    1
    37    36    37    1
    38    13    38    1
@<TRIPOS>SUBSTRUCTURE
     1 1           1 GROUP             0 ****  ****    0  
@<TRIPOS>MOLECULE
Molecule Name_00001_00233
    38    38     1     0     0
SMALL
NO_CHARGES
****
Generated from the CSD

@<TRIPOS>ATOM
     1 C5      -4.6724   1.3683  -0.5766   C.ar      1 1      0.0000
     2 C4      -4.6376  -0.0298  -0.5226   C.ar      1 1      0.0000
     3 C3      -3.4837  -0.6851  -0.0797   C.ar      1 1      0.0000
     4 C8      -2.3536   0.0487   0.3132   C.ar      1 1      0.0000
     5 C7      -2.3941   1.4498   0.2482   C.ar      1 1      0.0000
     6 C6      -3.5470   2.1071  -0.1951   C.ar      1 1      0.0000
     7 H4      -5.5033  -0.6069  -0.8314   H         1 1      0.0000
     8 C9      -1.1277  -0.6624   0.8622   C.3       1 1      0.0000
     9 H7      -1.5180   2.0293   0.5309   H         1 1      0.0000
    10 H6      -3.5649   3.1908  -0.2491   H         1 1      0.0000
    11 C10     -0.2097  -1.1090  -0.3017   C.3       1 1      0.0000
    12 H9A     -0.5681  -0.0004   1.5322   H         1 1      0.0000
    13 C11      1.0202  -1.8489   0.1432   C.3       1 1      0.0000
    14 C12      2.0261  -1.0570   0.9957   C.3       1 1      0.0000
    15 H12A     2.7338  -1.7587   1.4592   H         1 1      0.0000
    16 C13      2.8131   0.0528   0.3319   C.2       1 1      0.0000
    17 C14      2.4344   1.4674   0.6610   C.3       1 1      0.0000
    18 H14B     3.2961   2.1201   0.4824   H         1 1      0.0000
    19 H14A     2.1501   1.5620   1.7129   H         1 1      0.0000
    20 N        3.7924  -0.2415  -0.4715   N.pl3     1 1      0.0000
    21 HN       3.9743  -1.2713  -0.5722   H         1 1      0.0000
    22 C        4.6482   0.7208  -1.2262   C.3       1 1      0.0000
    23 H1A      5.4379   0.1447  -1.7104   H         1 1      0.0000
    24 H1C      4.0509   1.2314  -1.9884   H         1 1      0.0000
    25 H1B      5.0924   1.4517  -0.5462   H         1 1      0.0000
    26 H10A    -0.7714  -1.7489  -1.0013   H         1 1      0.0000
    27 H10B     0.1018  -0.2323  -0.8918   H         1 1      0.0000
    28 H9B     -1.4232  -1.5392   1.4489   H         1 1      0.0000
    29 H5      -5.5655   1.8774  -0.9235   H         1 1      0.0000
    30 H3      -3.4577  -1.7723  -0.0539   H         1 1      0.0000
    31 H12B     1.4737  -0.6119   1.8396   H         1 1      0.0000
    32 C15      1.2468   1.9414  -0.2441   C.3       1 1      0.0000
    33 H15A     1.4308   1.7077  -1.2973   H         1 1      0.0000
    34 H15B     0.3031   1.4790   0.0607   H         1 1      0.0000
    35 H15C     1.1455   3.0265  -0.1488   H         1 1      0.0000
    36 O2       0.6114  -2.9837   0.8811   O.3       1 1      0.0000
    37 H21      0.0512  -3.5682   0.3062   H         1 1      0.0000
    38 H22      1.5399  -2.1991  -0.7474   H         1 1      0.0000
@<TRIPOS>BOND
     1     1     2   ar
     2     1     6   ar
     3     1    29    1
     4     2     3   ar
     5     2     7    1
     6     3     4   ar
     7     3    30    1
     8     4     5   ar
     9     4     8    1
    10     5     6   ar
    11     5     9    1
    12     6    10    1
    13     8    11    1
    14     8    12    1
    15     8    28    1
    16    11    13    1
    17    11    26    1
    18    11    27    1
    19    13    14    1
    20    14    15    1
    21    14    16    1
    22    14    31    1
    23    16    17    1
    24    16    20    2
    25    17    18    1
    26    17    19    1
    27    17    32    1
    28    20    21    1
    29    20    22    1
    30    22    23    1
    31    22    24    1
    32    22    25    1
    33    32    33    1
    34    32    34    1
    35    32    35    1
    36    13    36    1
    37    36    37    1
    38    13    38    1
@<TRIPOS>SUBSTRUCTURE
     1 1           1 GROUP             0 ****  ****    0  
@<TRIPOS>MOLECULE
Molecule Name_00001_00234
    38    38     1     0     0
SMALL
NO_CHARGES
****
Generated from the CSD

@<TRIPOS>ATOM
     1 C5      -4.8966   0.2828  -0.7522   C.ar      1 1      0.0000
     2 C4      -4.0682  -0.2816  -1.7288   C.ar      1 1      0.0000
     3 C3      -2.7173  -0.5164  -1.4509   C.ar      1 1      0.0000
     4 C8      -2.1806  -0.1898  -0.1957   C.ar      1 1      0.0000
     5 C7      -3.0163   0.3832   0.7749   C.ar      1 1      0.0000
     6 C6      -4.3675   0.6194   0.4987   C.ar      1 1      0.0000
     7 H4      -4.4713  -0.5308  -2.7051   H         1 1      0.0000
     8 C9      -0.7311  -0.5124   0.1283   C.3       1 1      0.0000
     9 H7      -2.6079   0.6592   1.7446   H         1 1      0.0000
    10 H6      -5.0032   1.0704   1.2538   H         1 1      0.0000
    11 C10     -0.3945  -0.0477   1.5662   C.3       1 1      0.0000
    12 H9A     -0.5496  -1.5896   0.0432   H         1 1      0.0000
    13 C11      1.0148  -0.3525   1.9896   C.3       1 1      0.0000
    14 C12      2.1272   0.4600   1.3057   C.3       1 1      0.0000
    15 H12A     3.0679   0.3133   1.8552   H         1 1      0.0000
    16 C13      2.3876   0.2237  -0.1667   C.2       1 1      0.0000
    17 C14      2.8973   1.3794  -0.9776   C.3       1 1      0.0000
    18 H14B     2.3962   2.2966  -0.6488   H         1 1      0.0000
    19 H14A     2.6811   1.2376  -2.0403   H         1 1      0.0000
    20 N        2.1898  -0.9564  -0.6760   N.pl3     1 1      0.0000
    21 HN       1.8770  -1.6800   0.0183   H         1 1      0.0000
    22 C        2.3685  -1.3543  -2.1035   C.3       1 1      0.0000
    23 H1A      2.2278  -2.4345  -2.1612   H         1 1      0.0000
    24 H1C      1.6180  -0.8559  -2.7255   H         1 1      0.0000
    25 H1B      3.3727  -1.0968  -2.4491   H         1 1      0.0000
    26 H10A    -0.5637   1.0370   1.6616   H         1 1      0.0000
    27 H10B    -1.0863  -0.5167   2.2840   H         1 1      0.0000
    28 H9B     -0.0597  -0.0157  -0.5807   H         1 1      0.0000
    29 H5      -5.9436   0.4687  -0.9679   H         1 1      0.0000
    30 H3      -2.0751  -0.9418  -2.2189   H         1 1      0.0000
    31 H12B     1.8884   1.5289   1.4320   H         1 1      0.0000
    32 C15      4.4419   1.5495  -0.7785   C.3       1 1      0.0000
    33 H15A     4.6889   1.7482   0.2690   H         1 1      0.0000
    34 H15B     4.9873   0.6598  -1.1074   H         1 1      0.0000
    35 H15C     4.7800   2.4015  -1.3755   H         1 1      0.0000
    36 O2       1.1116  -0.1481   3.3854   O.3       1 1      0.0000
    37 H21      0.4769  -0.7517   3.8531   H         1 1      0.0000
    38 H22      1.2021  -1.4070   1.7926   H         1 1      0.0000
@<TRIPOS>BOND
     1     1     2   ar
     2     1     6   ar
     3     1    29    1
     4     2     3   ar
     5     2     7    1
     6     3     4   ar
     7     3    30    1
     8     4     5   ar
     9     4     8    1
    10     5     6   ar
    11     5     9    1
    12     6    10    1
    13     8    11    1
    14     8    12    1
    15     8    28    1
    16    11    13    1
    17    11    26    1
    18    11    27    1
    19    13    14    1
    20    14    15    1
    21    14    16    1
    22    14    31    1
    23    16    17    1
    24    16    20    2
    25    17    18    1
    26    17    19    1
    27    17    32    1
    28    20    21    1
    29    20    22    1
    30    22    23    1
    31    22    24    1
    32    22    25    1
    33    32    33    1
    34    32    34    1
    35    32    35    1
    36    13    36    1
    37    36    37    1
    38    13    38    1
@<TRIPOS>SUBSTRUCTURE
     1 1           1 GROUP             0 ****  ****    0  
@<TRIPOS>MOLECULE
Molecule Name_00001_00235
    38    38     1     0     0
SMALL
NO_CHARGES
****
Generated from the CSD

@<TRIPOS>ATOM
     1 C5      -4.6916   0.5744  -0.7457   C.ar      1 1      0.0000
     2 C4      -3.8807   0.0499  -1.7585   C.ar      1 1      0.0000
     3 C3      -2.5513  -0.2899  -1.4859   C.ar      1 1      0.0000
     4 C8      -2.0187  -0.1092  -0.1999   C.ar      1 1      0.0000
     5 C7      -2.8363   0.4248   0.8077   C.ar      1 1      0.0000
     6 C6      -4.1660   0.7659   0.5369   C.ar      1 1      0.0000
     7 H4      -4.2804  -0.0867  -2.7582   H         1 1      0.0000
     8 C9      -0.5969  -0.5464   0.1119   C.3       1 1      0.0000
     9 H7      -2.4297   0.5884   1.8032   H         1 1      0.0000
    10 H6      -4.7873   1.1857   1.3214   H         1 1      0.0000
    11 C10     -0.2591  -0.2325   1.5898   C.3       1 1      0.0000
    12 H9A     -0.4779  -1.6208  -0.0673   H         1 1      0.0000
    13 C11      1.1219  -0.6584   2.0018   C.3       1 1      0.0000
    14 C12      2.2925   0.1428   1.4075   C.3       1 1      0.0000
    15 H12A     3.2128  -0.1088   1.9533   H         1 1      0.0000
    16 C13      2.5647   0.0229  -0.0768   C.2       1 1      0.0000
    17 C14      3.1562   1.2131  -0.7742   C.3       1 1      0.0000
    18 H14B     3.6635   0.8788  -1.6860   H         1 1      0.0000
    19 H14A     3.8942   1.7120  -0.1396   H         1 1      0.0000
    20 N        2.3065  -1.0931  -0.6924   N.pl3     1 1      0.0000
    21 HN       1.9391  -1.8553  -0.0698   H         1 1      0.0000
    22 C        2.4869  -1.3727  -2.1475   C.3       1 1      0.0000
    23 H1A      2.2836  -2.4330  -2.3037   H         1 1      0.0000
    24 H1C      1.7784  -0.7765  -2.7316   H         1 1      0.0000
    25 H1B      3.5105  -1.1467  -2.4560   H         1 1      0.0000
    26 H10A    -0.3655   0.8477   1.7800   H         1 1      0.0000
    27 H10B    -0.9902  -0.7207   2.2539   H         1 1      0.0000
    28 H9B      0.1153  -0.0303  -0.5412   H         1 1      0.0000
    29 H5      -5.7218   0.8418  -0.9569   H         1 1      0.0000
    30 H3      -1.9217  -0.6835  -2.2810   H         1 1      0.0000
    31 H12B     2.1150   1.2087   1.6263   H         1 1      0.0000
    32 C15      2.0331   2.2322  -1.1670   C.3       1 1      0.0000
    33 H15A     1.3053   1.7800  -1.8479   H         1 1      0.0000
    34 H15B     1.5059   2.6055  -0.2838   H         1 1      0.0000
    35 H15C     2.4948   3.0823  -1.6778   H         1 1      0.0000
    36 O2       1.2056  -0.5850   3.4114   O.3       1 1      0.0000
    37 H21      0.5281  -1.1884   3.8151   H         1 1      0.0000
    38 H22      1.2500  -1.7007   1.7133   H         1 1      0.0000
@<TRIPOS>BOND
     1     1     2   ar
     2     1     6   ar
     3     1    29    1
     4     2     3   ar
     5     2     7    1
     6     3     4   ar
     7     3    30    1
     8     4     5   ar
     9     4     8    1
    10     5     6   ar
    11     5     9    1
    12     6    10    1
    13     8    11    1
    14     8    12    1
    15     8    28    1
    16    11    13    1
    17    11    26    1
    18    11    27    1
    19    13    14    1
    20    14    15    1
    21    14    16    1
    22    14    31    1
    23    16    17    1
    24    16    20    2
    25    17    18    1
    26    17    19    1
    27    17    32    1
    28    20    21    1
    29    20    22    1
    30    22    23    1
    31    22    24    1
    32    22    25    1
    33    32    33    1
    34    32    34    1
    35    32    35    1
    36    13    36    1
    37    36    37    1
    38    13    38    1
@<TRIPOS>SUBSTRUCTURE
     1 1           1 GROUP             0 ****  ****    0  
@<TRIPOS>MOLECULE
Molecule Name_00001_00236
    38    38     1     0     0
SMALL
NO_CHARGES
****
Generated from the CSD

@<TRIPOS>ATOM
     1 C5      -5.6375  -0.2557  -0.0603   C.ar      1 1      0.0000
     2 C4      -4.7388  -1.0514  -0.7799   C.ar      1 1      0.0000
     3 C3      -3.3765  -0.7335  -0.7923   C.ar      1 1      0.0000
     4 C8      -2.8984   0.3817  -0.0868   C.ar      1 1      0.0000
     5 C7      -3.8074   1.1789   0.6254   C.ar      1 1      0.0000
     6 C6      -5.1704   0.8629   0.6385   C.ar      1 1      0.0000
     7 H4      -5.0991  -1.9116  -1.3350   H         1 1      0.0000
     8 C9      -1.4094   0.6830  -0.0424   C.3       1 1      0.0000
     9 H7      -3.4523   2.0573   1.1597   H         1 1      0.0000
    10 H6      -5.8659   1.4908   1.1859   H         1 1      0.0000
    11 C10     -0.6576  -0.4690   0.6679   C.3       1 1      0.0000
    12 H9A     -1.0122   0.8047  -1.0563   H         1 1      0.0000
    13 C11      0.8277  -0.2601   0.7605   C.3       1 1      0.0000
    14 C12      1.5979  -0.2136  -0.5700   C.3       1 1      0.0000
    15 H12A     1.2295   0.6317  -1.1682   H         1 1      0.0000
    16 C13      3.1096  -0.1477  -0.5228   C.2       1 1      0.0000
    17 C14      3.7363   1.1402  -0.0740   C.3       1 1      0.0000
    18 H14B     2.9588   1.9078   0.0081   H         1 1      0.0000
    19 H14A     4.4795   1.4870  -0.7976   H         1 1      0.0000
    20 N        3.8117  -1.1945  -0.8427   N.pl3     1 1      0.0000
    21 HN       3.2393  -2.0392  -1.0922   H         1 1      0.0000
    22 C        5.3006  -1.2943  -0.8778   C.3       1 1      0.0000
    23 H1A      5.5586  -2.0710  -1.5990   H         1 1      0.0000
    24 H1C      5.7301  -0.3406  -1.2010   H         1 1      0.0000
    25 H1B      5.6887  -1.5656   0.1071   H         1 1      0.0000
    26 H10A    -1.0571  -0.6097   1.6852   H         1 1      0.0000
    27 H10B    -0.8467  -1.4198   0.1445   H         1 1      0.0000
    28 H9B     -1.2234   1.6216   0.4910   H         1 1      0.0000
    29 H5      -6.6948  -0.4992  -0.0531   H         1 1      0.0000
    30 H3      -2.6850  -1.3474  -1.3654   H         1 1      0.0000
    31 H12B     1.3238  -1.1115  -1.1481   H         1 1      0.0000
    32 C15      4.4166   0.9600   1.3256   C.3       1 1      0.0000
    33 H15A     3.7180   0.5425   2.0572   H         1 1      0.0000
    34 H15B     5.2934   0.3084   1.2626   H         1 1      0.0000
    35 H15C     4.7412   1.9407   1.6859   H         1 1      0.0000
    36 O2       1.0620   0.9519   1.4501   O.3       1 1      0.0000
    37 H21      0.6681   0.8965   2.3600   H         1 1      0.0000
    38 H22      1.2424  -1.0702   1.3584   H         1 1      0.0000
@<TRIPOS>BOND
     1     1     2   ar
     2     1     6   ar
     3     1    29    1
     4     2     3   ar
     5     2     7    1
     6     3     4   ar
     7     3    30    1
     8     4     5   ar
     9     4     8    1
    10     5     6   ar
    11     5     9    1
    12     6    10    1
    13     8    11    1
    14     8    12    1
    15     8    28    1
    16    11    13    1
    17    11    26    1
    18    11    27    1
    19    13    14    1
    20    14    15    1
    21    14    16    1
    22    14    31    1
    23    16    17    1
    24    16    20    2
    25    17    18    1
    26    17    19    1
    27    17    32    1
    28    20    21    1
    29    20    22    1
    30    22    23    1
    31    22    24    1
    32    22    25    1
    33    32    33    1
    34    32    34    1
    35    32    35    1
    36    13    36    1
    37    36    37    1
    38    13    38    1
@<TRIPOS>SUBSTRUCTURE
     1 1           1 GROUP             0 ****  ****    0  
@<TRIPOS>MOLECULE
Molecule Name_00001_00237
    38    38     1     0     0
SMALL
NO_CHARGES
****
Generated from the CSD

@<TRIPOS>ATOM
     1 C5      -4.6786   1.0996  -0.9265   C.ar      1 1      0.0000
     2 C4      -4.3857   1.5599   0.3622   C.ar      1 1      0.0000
     3 C3      -3.2429   1.1018   1.0265   C.ar      1 1      0.0000
     4 C8      -2.3820   0.1799   0.4110   C.ar      1 1      0.0000
     5 C7      -2.6875  -0.2826  -0.8781   C.ar      1 1      0.0000
     6 C6      -3.8304   0.1738  -1.5439   C.ar      1 1      0.0000
     7 H4      -5.0488   2.2669   0.8502   H         1 1      0.0000
     8 C9      -1.1037  -0.2606   1.1052   C.3       1 1      0.0000
     9 H7      -2.0391  -1.0123  -1.3580   H         1 1      0.0000
    10 H6      -4.0617  -0.1965  -2.5375   H         1 1      0.0000
    11 C10     -0.3438  -1.2774   0.2188   C.3       1 1      0.0000
    12 H9A     -0.4578   0.6020   1.3031   H         1 1      0.0000
    13 C11      0.9393  -1.7725   0.8244   C.3       1 1      0.0000
    14 C12      2.0220  -0.7147   1.0969   C.3       1 1      0.0000
    15 H12A     2.8055  -1.1579   1.7277   H         1 1      0.0000
    16 C13      2.6812  -0.0403  -0.0873   C.2       1 1      0.0000
    17 C14      1.9253   1.0624  -0.7697   C.3       1 1      0.0000
    18 H14B     0.8607   0.8046  -0.7956   H         1 1      0.0000
    19 H14A     2.2676   1.1921  -1.8003   H         1 1      0.0000
    20 N        3.8709  -0.4096  -0.4607   N.pl3     1 1      0.0000
    21 HN       4.2980  -1.1604   0.1371   H         1 1      0.0000
    22 C        4.6507   0.1259  -1.6154   C.3       1 1      0.0000
    23 H1A      5.6449  -0.3211  -1.5729   H         1 1      0.0000
    24 H1C      4.1650  -0.1559  -2.5551   H         1 1      0.0000
    25 H1B      4.7349   1.2133  -1.5482   H         1 1      0.0000
    26 H10A    -0.9882  -2.1446   0.0021   H         1 1      0.0000
    27 H10B    -0.1189  -0.8268  -0.7611   H         1 1      0.0000
    28 H9B     -1.3315  -0.7210   2.0728   H         1 1      0.0000
    29 H5      -5.5667   1.4514  -1.4413   H         1 1      0.0000
    30 H3      -3.0283   1.4521   2.0338   H         1 1      0.0000
    31 H12B     1.5702   0.0758   1.7185   H         1 1      0.0000
    32 C15      2.0989   2.4099   0.0103   C.3       1 1      0.0000
    33 H15A     1.7147   2.3310   1.0320   H         1 1      0.0000
    34 H15B     3.1487   2.7159   0.0503   H         1 1      0.0000
    35 H15C     1.5321   3.1894  -0.5072   H         1 1      0.0000
    36 O2       0.6328  -2.4168   2.0452   O.3       1 1      0.0000
    37 H21      0.0207  -3.1794   1.8725   H         1 1      0.0000
    38 H22      1.3613  -2.5167   0.1507   H         1 1      0.0000
@<TRIPOS>BOND
     1     1     2   ar
     2     1     6   ar
     3     1    29    1
     4     2     3   ar
     5     2     7    1
     6     3     4   ar
     7     3    30    1
     8     4     5   ar
     9     4     8    1
    10     5     6   ar
    11     5     9    1
    12     6    10    1
    13     8    11    1
    14     8    12    1
    15     8    28    1
    16    11    13    1
    17    11    26    1
    18    11    27    1
    19    13    14    1
    20    14    15    1
    21    14    16    1
    22    14    31    1
    23    16    17    1
    24    16    20    2
    25    17    18    1
    26    17    19    1
    27    17    32    1
    28    20    21    1
    29    20    22    1
    30    22    23    1
    31    22    24    1
    32    22    25    1
    33    32    33    1
    34    32    34    1
    35    32    35    1
    36    13    36    1
    37    36    37    1
    38    13    38    1
@<TRIPOS>SUBSTRUCTURE
     1 1           1 GROUP             0 ****  ****    0  
@<TRIPOS>MOLECULE
Molecule Name_00001_00238
    38    38     1     0     0
SMALL
NO_CHARGES
****
Generated from the CSD

@<TRIPOS>ATOM
     1 C5      -4.7008  -0.2194   1.3507   C.ar      1 1      0.0000
     2 C4      -4.5563  -1.1311   0.2988   C.ar      1 1      0.0000
     3 C3      -3.4114  -1.0979  -0.5045   C.ar      1 1      0.0000
     4 C8      -2.4002  -0.1542  -0.2656   C.ar      1 1      0.0000
     5 C7      -2.5569   0.7615   0.7860   C.ar      1 1      0.0000
     6 C6      -3.7015   0.7303   1.5901   C.ar      1 1      0.0000
     7 H4      -5.3356  -1.8598   0.1008   H         1 1      0.0000
     8 C9      -1.1255  -0.1669  -1.0932   C.3       1 1      0.0000
     9 H7      -1.7897   1.5106   0.9688   H         1 1      0.0000
    10 H6      -3.8163   1.4483   2.3958   H         1 1      0.0000
    11 C10     -0.1839   0.9721  -0.6318   C.3       1 1      0.0000
    12 H9A     -0.6102  -1.1283  -0.9892   H         1 1      0.0000
    13 C11      1.1085   1.0398  -1.3956   C.3       1 1      0.0000
    14 C12      2.0525  -0.1662  -1.2543   C.3       1 1      0.0000
    15 H12A     2.8384  -0.0980  -2.0199   H         1 1      0.0000
    16 C13      2.7078  -0.4119   0.0880   C.2       1 1      0.0000
    17 C14      3.7928   0.5328   0.5162   C.3       1 1      0.0000
    18 H14B     4.4050   0.7937  -0.3542   H         1 1      0.0000
    19 H14A     4.4445   0.0685   1.2618   H         1 1      0.0000
    20 N        2.3060  -1.4005   0.8313   N.pl3     1 1      0.0000
    21 HN       1.5079  -1.9499   0.4254   H         1 1      0.0000
    22 C        2.8564  -1.7998   2.1601   C.3       1 1      0.0000
    23 H1A      2.2182  -2.5926   2.5526   H         1 1      0.0000
    24 H1C      3.8765  -2.1790   2.0416   H         1 1      0.0000
    25 H1B      2.8497  -0.9502   2.8473   H         1 1      0.0000
    26 H10A    -0.6959   1.9440  -0.7198   H         1 1      0.0000
    27 H10B     0.0466   0.8580   0.4395   H         1 1      0.0000
    28 H9B     -1.3568  -0.0390  -2.1564   H         1 1      0.0000
    29 H5      -5.5901  -0.2419   1.9720   H         1 1      0.0000
    30 H3      -3.3114  -1.7996  -1.3297   H         1 1      0.0000
    31 H12B     1.4808  -1.0723  -1.5142   H         1 1      0.0000
    32 C15      3.1746   1.8445   1.1092   C.3       1 1      0.0000
    33 H15A     3.2805   2.6839   0.4151   H         1 1      0.0000
    34 H15B     2.1146   1.7143   1.3472   H         1 1      0.0000
    35 H15C     3.7066   2.0962   2.0314   H         1 1      0.0000
    36 O2       0.8043   1.2055  -2.7665   O.3       1 1      0.0000
    37 H21      0.2896   2.0454  -2.8922   H         1 1      0.0000
    38 H22      1.6469   1.9262  -1.0634   H         1 1      0.0000
@<TRIPOS>BOND
     1     1     2   ar
     2     1     6   ar
     3     1    29    1
     4     2     3   ar
     5     2     7    1
     6     3     4   ar
     7     3    30    1
     8     4     5   ar
     9     4     8    1
    10     5     6   ar
    11     5     9    1
    12     6    10    1
    13     8    11    1
    14     8    12    1
    15     8    28    1
    16    11    13    1
    17    11    26    1
    18    11    27    1
    19    13    14    1
    20    14    15    1
    21    14    16    1
    22    14    31    1
    23    16    17    1
    24    16    20    2
    25    17    18    1
    26    17    19    1
    27    17    32    1
    28    20    21    1
    29    20    22    1
    30    22    23    1
    31    22    24    1
    32    22    25    1
    33    32    33    1
    34    32    34    1
    35    32    35    1
    36    13    36    1
    37    36    37    1
    38    13    38    1
@<TRIPOS>SUBSTRUCTURE
     1 1           1 GROUP             0 ****  ****    0  
@<TRIPOS>MOLECULE
Molecule Name_00001_00239
    38    38     1     0     0
SMALL
NO_CHARGES
****
Generated from the CSD

@<TRIPOS>ATOM
     1 C5      -4.8338  -0.8342   1.0912   C.ar      1 1      0.0000
     2 C4      -4.6044  -1.3185  -0.2017   C.ar      1 1      0.0000
     3 C3      -3.4471  -0.9464  -0.8939   C.ar      1 1      0.0000
     4 C8      -2.5079  -0.0872  -0.3023   C.ar      1 1      0.0000
     5 C7      -2.7497   0.4002   0.9911   C.ar      1 1      0.0000
     6 C6      -3.9069   0.0297   1.6848   C.ar      1 1      0.0000
     7 H4      -5.3279  -1.9772  -0.6712   H         1 1      0.0000
     8 C9      -1.2174   0.2575  -1.0273   C.3       1 1      0.0000
     9 H7      -2.0394   1.0826   1.4527   H         1 1      0.0000
    10 H6      -4.0881   0.4188   2.6815   H         1 1      0.0000
    11 C10     -0.3660   1.2194  -0.1633   C.3       1 1      0.0000
    12 H9A     -0.6402  -0.6502  -1.2358   H         1 1      0.0000
    13 C11      0.9353   1.6186  -0.8001   C.3       1 1      0.0000
    14 C12      1.9560   0.4929  -1.0383   C.3       1 1      0.0000
    15 H12A     2.7520   0.8646  -1.6989   H         1 1      0.0000
    16 C13      2.5967  -0.1623   0.1666   C.2       1 1      0.0000
    17 C14      3.6051   0.6369   0.9394   C.3       1 1      0.0000
    18 H14B     3.6731   0.2393   1.9581   H         1 1      0.0000
    19 H14A     3.3056   1.6868   1.0048   H         1 1      0.0000
    20 N        2.2469  -1.3673   0.5084   N.pl3     1 1      0.0000
    21 HN       1.4971  -1.7875  -0.0956   H         1 1      0.0000
    22 C        2.7937  -2.1677   1.6435   C.3       1 1      0.0000
    23 H1A      2.2024  -3.0818   1.7127   H         1 1      0.0000
    24 H1C      3.8396  -2.4250   1.4476   H         1 1      0.0000
    25 H1B      2.7141  -1.6083   2.5788   H         1 1      0.0000
    26 H10A    -0.9409   2.1317   0.0639   H         1 1      0.0000
    27 H10B    -0.1518   0.7568   0.8134   H         1 1      0.0000
    28 H9B     -1.4335   0.7302  -1.9918   H         1 1      0.0000
    29 H5      -5.7329  -1.1193   1.6275   H         1 1      0.0000
    30 H3      -3.2815  -1.3143  -1.9041   H         1 1      0.0000
    31 H12B     1.4532  -0.2991  -1.6173   H         1 1      0.0000
    32 C15      5.0155   0.5387   0.2646   C.3       1 1      0.0000
    33 H15A     5.3705  -0.4960   0.2325   H         1 1      0.0000
    34 H15B     4.9997   0.9385  -0.7538   H         1 1      0.0000
    35 H15C     5.7271   1.1245   0.8539   H         1 1      0.0000
    36 O2       0.6508   2.2285  -2.0437   O.3       1 1      0.0000
    37 H21      0.0830   3.0298  -1.8971   H         1 1      0.0000
    38 H22      1.4046   2.3654  -0.1614   H         1 1      0.0000
@<TRIPOS>BOND
     1     1     2   ar
     2     1     6   ar
     3     1    29    1
     4     2     3   ar
     5     2     7    1
     6     3     4   ar
     7     3    30    1
     8     4     5   ar
     9     4     8    1
    10     5     6   ar
    11     5     9    1
    12     6    10    1
    13     8    11    1
    14     8    12    1
    15     8    28    1
    16    11    13    1
    17    11    26    1
    18    11    27    1
    19    13    14    1
    20    14    15    1
    21    14    16    1
    22    14    31    1
    23    16    17    1
    24    16    20    2
    25    17    18    1
    26    17    19    1
    27    17    32    1
    28    20    21    1
    29    20    22    1
    30    22    23    1
    31    22    24    1
    32    22    25    1
    33    32    33    1
    34    32    34    1
    35    32    35    1
    36    13    36    1
    37    36    37    1
    38    13    38    1
@<TRIPOS>SUBSTRUCTURE
     1 1           1 GROUP             0 ****  ****    0  
@<TRIPOS>MOLECULE
Molecule Name_00001_00240
    38    38     1     0     0
SMALL
NO_CHARGES
****
Generated from the CSD

@<TRIPOS>ATOM
     1 C5      -3.9502  -0.4882   1.7461   C.ar      1 1      0.0000
     2 C4      -2.9682   0.5074   1.8011   C.ar      1 1      0.0000
     3 C3      -2.2883   0.8855   0.6384   C.ar      1 1      0.0000
     4 C8      -2.5820   0.2733  -0.5900   C.ar      1 1      0.0000
     5 C7      -3.5622  -0.7297  -0.6348   C.ar      1 1      0.0000
     6 C6      -4.2429  -1.1097   0.5272   C.ar      1 1      0.0000
     7 H4      -2.7280   0.9817   2.7472   H         1 1      0.0000
     8 C9      -1.8939   0.7361  -1.8637   C.3       1 1      0.0000
     9 H7      -3.7849  -1.2258  -1.5768   H         1 1      0.0000
    10 H6      -4.9936  -1.8922   0.4829   H         1 1      0.0000
    11 C10     -0.5557  -0.0206  -2.0469   C.3       1 1      0.0000
    12 H9A     -2.5351   0.5552  -2.7336   H         1 1      0.0000
    13 C11      0.4974   0.3542  -1.0425   C.3       1 1      0.0000
    14 C12      1.8366  -0.3956  -1.1409   C.3       1 1      0.0000
    15 H12A     2.4180   0.0172  -1.9774   H         1 1      0.0000
    16 C13      2.7240  -0.4445   0.0846   C.2       1 1      0.0000
    17 C14      3.4216   0.8213   0.4898   C.3       1 1      0.0000
    18 H14B     3.7475   1.3547  -0.4101   H         1 1      0.0000
    19 H14A     4.3068   0.6042   1.0942   H         1 1      0.0000
    20 N        2.8383  -1.5529   0.7551   N.pl3     1 1      0.0000
    21 HN       2.2569  -2.3449   0.3833   H         1 1      0.0000
    22 C        3.6857  -1.7830   1.9622   C.3       1 1      0.0000
    23 H1A      3.4587  -2.7830   2.3343   H         1 1      0.0000
    24 H1C      4.7445  -1.7280   1.6895   H         1 1      0.0000
    25 H1B      3.4587  -1.0444   2.7348   H         1 1      0.0000
    26 H10A    -0.7259  -1.1078  -1.9891   H         1 1      0.0000
    27 H10B    -0.1573   0.1605  -3.0580   H         1 1      0.0000
    28 H9B     -1.6998   1.8136  -1.8253   H         1 1      0.0000
    29 H5      -4.4755  -0.7848   2.6480   H         1 1      0.0000
    30 H3      -1.5158   1.6496   0.6901   H         1 1      0.0000
    31 H12B     1.6182  -1.4360  -1.4329   H         1 1      0.0000
    32 C15      2.4513   1.7462   1.3005   C.3       1 1      0.0000
    33 H15A     1.4127   1.4144   1.2057   H         1 1      0.0000
    34 H15B     2.7182   1.7728   2.3613   H         1 1      0.0000
    35 H15C     2.5217   2.7625   0.9018   H         1 1      0.0000
    36 O2       0.7552   1.7389  -1.1673   O.3       1 1      0.0000
    37 H21      0.2271   2.2364  -0.4893   H         1 1      0.0000
    38 H22      0.0885   0.1788  -0.0486   H         1 1      0.0000
@<TRIPOS>BOND
     1     1     2   ar
     2     1     6   ar
     3     1    29    1
     4     2     3   ar
     5     2     7    1
     6     3     4   ar
     7     3    30    1
     8     4     5   ar
     9     4     8    1
    10     5     6   ar
    11     5     9    1
    12     6    10    1
    13     8    11    1
    14     8    12    1
    15     8    28    1
    16    11    13    1
    17    11    26    1
    18    11    27    1
    19    13    14    1
    20    14    15    1
    21    14    16    1
    22    14    31    1
    23    16    17    1
    24    16    20    2
    25    17    18    1
    26    17    19    1
    27    17    32    1
    28    20    21    1
    29    20    22    1
    30    22    23    1
    31    22    24    1
    32    22    25    1
    33    32    33    1
    34    32    34    1
    35    32    35    1
    36    13    36    1
    37    36    37    1
    38    13    38    1
@<TRIPOS>SUBSTRUCTURE
     1 1           1 GROUP             0 ****  ****    0  
@<TRIPOS>MOLECULE
Molecule Name_00001_00241
    38    38     1     0     0
SMALL
NO_CHARGES
****
Generated from the CSD

@<TRIPOS>ATOM
     1 C5      -5.4781   0.5741   0.5314   C.ar      1 1      0.0000
     2 C4      -4.5276   1.5457   0.8647   C.ar      1 1      0.0000
     3 C3      -3.2012   1.4012   0.4440   C.ar      1 1      0.0000
     4 C8      -2.8111   0.2855  -0.3131   C.ar      1 1      0.0000
     5 C7      -3.7688  -0.6879  -0.6359   C.ar      1 1      0.0000
     6 C6      -5.0957  -0.5455  -0.2155   C.ar      1 1      0.0000
     7 H4      -4.8170   2.4083   1.4562   H         1 1      0.0000
     8 C9      -1.3869   0.1671  -0.8302   C.3       1 1      0.0000
     9 H7      -3.4748  -1.5671  -1.2050   H         1 1      0.0000
    10 H6      -5.8266  -1.3083  -0.4638   H         1 1      0.0000
    11 C10     -0.6981  -1.0702  -0.2044   C.3       1 1      0.0000
    12 H9A     -1.3817   0.0720  -1.9217   H         1 1      0.0000
    13 C11      0.7961  -1.0801  -0.3639   C.3       1 1      0.0000
    14 C12      1.5777  -0.0211   0.4319   C.3       1 1      0.0000
    15 H12A     1.4062  -0.1807   1.5058   H         1 1      0.0000
    16 C13      3.0680   0.1001   0.1949   C.2       1 1      0.0000
    17 C14      3.5498   1.2593  -0.6280   C.3       1 1      0.0000
    18 H14B     2.8471   1.4314  -1.4509   H         1 1      0.0000
    19 H14A     4.5327   1.0510  -1.0600   H         1 1      0.0000
    20 N        3.8781  -0.7716   0.7192   N.pl3     1 1      0.0000
    21 HN       3.4053  -1.5010   1.3091   H         1 1      0.0000
    22 C        5.3621  -0.8173   0.5651   C.3       1 1      0.0000
    23 H1A      5.7345  -1.6027   1.2243   H         1 1      0.0000
    24 H1C      5.6213  -1.0585  -0.4708   H         1 1      0.0000
    25 H1B      5.8054   0.1402   0.8493   H         1 1      0.0000
    26 H10A    -0.9377  -1.1328   0.8694   H         1 1      0.0000
    27 H10B    -1.1051  -1.9919  -0.6500   H         1 1      0.0000
    28 H9B     -0.8126   1.0667  -0.5827   H         1 1      0.0000
    29 H5      -6.5063   0.6834   0.8604   H         1 1      0.0000
    30 H3      -2.4638   2.1523   0.7186   H         1 1      0.0000
    31 H12B     1.1273   0.9616   0.2153   H         1 1      0.0000
    32 C15      3.6295   2.5565   0.2467   C.3       1 1      0.0000
    33 H15A     2.6486   2.8252   0.6509   H         1 1      0.0000
    34 H15B     4.3326   2.4362   1.0764   H         1 1      0.0000
    35 H15C     3.9762   3.3819  -0.3821   H         1 1      0.0000
    36 O2       1.2729  -2.3571   0.0119   O.3       1 1      0.0000
    37 H21      0.8632  -3.0483  -0.5716   H         1 1      0.0000
    38 H22      1.0204  -0.9372  -1.4199   H         1 1      0.0000
@<TRIPOS>BOND
     1     1     2   ar
     2     1     6   ar
     3     1    29    1
     4     2     3   ar
     5     2     7    1
     6     3     4   ar
     7     3    30    1
     8     4     5   ar
     9     4     8    1
    10     5     6   ar
    11     5     9    1
    12     6    10    1
    13     8    11    1
    14     8    12    1
    15     8    28    1
    16    11    13    1
    17    11    26    1
    18    11    27    1
    19    13    14    1
    20    14    15    1
    21    14    16    1
    22    14    31    1
    23    16    17    1
    24    16    20    2
    25    17    18    1
    26    17    19    1
    27    17    32    1
    28    20    21    1
    29    20    22    1
    30    22    23    1
    31    22    24    1
    32    22    25    1
    33    32    33    1
    34    32    34    1
    35    32    35    1
    36    13    36    1
    37    36    37    1
    38    13    38    1
@<TRIPOS>SUBSTRUCTURE
     1 1           1 GROUP             0 ****  ****    0  
@<TRIPOS>MOLECULE
Molecule Name_00001_00242
    38    38     1     0     0
SMALL
NO_CHARGES
****
Generated from the CSD

@<TRIPOS>ATOM
     1 C5      -5.5179   0.3000   0.4927   C.ar      1 1      0.0000
     2 C4      -4.6319   1.0631   1.2615   C.ar      1 1      0.0000
     3 C3      -3.2765   1.1185   0.9194   C.ar      1 1      0.0000
     4 C8      -2.7928   0.4126  -0.1931   C.ar      1 1      0.0000
     5 C7      -3.6865  -0.3566  -0.9537   C.ar      1 1      0.0000
     6 C6      -5.0423  -0.4139  -0.6127   C.ar      1 1      0.0000
     7 H4      -4.9941   1.6066   2.1282   H         1 1      0.0000
     8 C9      -1.3347   0.5322  -0.6052   C.3       1 1      0.0000
     9 H7      -3.3204  -0.9243  -1.8063   H         1 1      0.0000
    10 H6      -5.7235  -1.0183  -1.2030   H         1 1      0.0000
    11 C10     -0.6363  -0.8442  -0.4846   C.3       1 1      0.0000
    12 H9A     -1.2560   0.8899  -1.6379   H         1 1      0.0000
    13 C11      0.8642  -0.7701  -0.5215   C.3       1 1      0.0000
    14 C12      1.5486  -0.1175   0.6914   C.3       1 1      0.0000
    15 H12A     1.3157  -0.7026   1.5923   H         1 1      0.0000
    16 C13      3.0446   0.1078   0.6366   C.2       1 1      0.0000
    17 C14      3.5291   1.5073   0.3928   C.3       1 1      0.0000
    18 H14B     4.5523   1.6038   0.7727   H         1 1      0.0000
    19 H14A     2.9033   2.2352   0.9168   H         1 1      0.0000
    20 N        3.8552  -0.8920   0.8221   N.pl3     1 1      0.0000
    21 HN       3.3766  -1.8040   1.0284   H         1 1      0.0000
    22 C        5.3466  -0.8530   0.7747   C.3       1 1      0.0000
    23 H1A      5.7087  -1.8341   1.0851   H         1 1      0.0000
    24 H1C      5.6812  -0.6483  -0.2473   H         1 1      0.0000
    25 H1B      5.7306  -0.0889   1.4549   H         1 1      0.0000
    26 H10A    -0.9411  -1.3414   0.4504   H         1 1      0.0000
    27 H10B    -0.9753  -1.5095  -1.2946   H         1 1      0.0000
    28 H9B     -0.8154   1.2600   0.0280   H         1 1      0.0000
    29 H5      -6.5686   0.2533   0.7594   H         1 1      0.0000
    30 H3      -2.5901   1.7017   1.5294   H         1 1      0.0000
    31 H12B     1.0723   0.8627   0.8584   H         1 1      0.0000
    32 C15      3.5284   1.8280  -1.1406   C.3       1 1      0.0000
    33 H15A     4.1897   1.1506  -1.6896   H         1 1      0.0000
    34 H15B     2.5214   1.7577  -1.5629   H         1 1      0.0000
    35 H15C     3.8920   2.8497  -1.2848   H         1 1      0.0000
    36 O2       1.3688  -2.0837  -0.6607   O.3       1 1      0.0000
    37 H21      1.0263  -2.4823  -1.5032   H         1 1      0.0000
    38 H22      1.1491  -0.2070  -1.4090   H         1 1      0.0000
@<TRIPOS>BOND
     1     1     2   ar
     2     1     6   ar
     3     1    29    1
     4     2     3   ar
     5     2     7    1
     6     3     4   ar
     7     3    30    1
     8     4     5   ar
     9     4     8    1
    10     5     6   ar
    11     5     9    1
    12     6    10    1
    13     8    11    1
    14     8    12    1
    15     8    28    1
    16    11    13    1
    17    11    26    1
    18    11    27    1
    19    13    14    1
    20    14    15    1
    21    14    16    1
    22    14    31    1
    23    16    17    1
    24    16    20    2
    25    17    18    1
    26    17    19    1
    27    17    32    1
    28    20    21    1
    29    20    22    1
    30    22    23    1
    31    22    24    1
    32    22    25    1
    33    32    33    1
    34    32    34    1
    35    32    35    1
    36    13    36    1
    37    36    37    1
    38    13    38    1
@<TRIPOS>SUBSTRUCTURE
     1 1           1 GROUP             0 ****  ****    0  
@<TRIPOS>MOLECULE
Molecule Name_00001_00243
    38    38     1     0     0
SMALL
NO_CHARGES
****
Generated from the CSD

@<TRIPOS>ATOM
     1 C5      -5.0450   1.0427   0.4933   C.ar      1 1      0.0000
     2 C4      -4.7775   0.5846  -0.8017   C.ar      1 1      0.0000
     3 C3      -3.6364  -0.1856  -1.0504   C.ar      1 1      0.0000
     4 C8      -2.7515  -0.5055  -0.0089   C.ar      1 1      0.0000
     5 C7      -3.0229  -0.0352   1.2850   C.ar      1 1      0.0000
     6 C6      -4.1633   0.7358   1.5355   C.ar      1 1      0.0000
     7 H4      -5.4511   0.8326  -1.6156   H         1 1      0.0000
     8 C9      -1.5520  -1.4024  -0.2673   C.3       1 1      0.0000
     9 H7      -2.3345  -0.2594   2.0967   H         1 1      0.0000
    10 H6      -4.3596   1.1012   2.5384   H         1 1      0.0000
    11 C10     -0.3521  -0.5538  -0.7540   C.3       1 1      0.0000
    12 H9A     -1.2704  -1.9390   0.6456   H         1 1      0.0000
    13 C11      0.9655  -1.2743  -0.6968   C.3       1 1      0.0000
    14 C12      2.1929  -0.5006  -1.2070   C.3       1 1      0.0000
    15 H12A     1.9338   0.0011  -2.1501   H         1 1      0.0000
    16 C13      2.8384   0.5113  -0.2845   C.2       1 1      0.0000
    17 C14      4.2735   0.8695  -0.5396   C.3       1 1      0.0000
    18 H14B     4.4806   1.8528  -0.1029   H         1 1      0.0000
    19 H14A     4.4783   0.9254  -1.6125   H         1 1      0.0000
    20 N        2.1407   1.0510   0.6711   N.pl3     1 1      0.0000
    21 HN       1.1376   0.7407   0.7022   H         1 1      0.0000
    22 C        2.6236   2.0380   1.6813   C.3       1 1      0.0000
    23 H1A      1.7573   2.3647   2.2582   H         1 1      0.0000
    24 H1C      3.3476   1.5618   2.3503   H         1 1      0.0000
    25 H1B      3.0800   2.8988   1.1867   H         1 1      0.0000
    26 H10A    -0.5237  -0.2161  -1.7888   H         1 1      0.0000
    27 H10B    -0.2753   0.3669  -0.1539   H         1 1      0.0000
    28 H9B     -1.7933  -2.1578  -1.0232   H         1 1      0.0000
    29 H5      -5.9278   1.6433   0.6865   H         1 1      0.0000
    30 H3      -3.4261  -0.5266  -2.0618   H         1 1      0.0000
    31 H12B     2.9649  -1.2386  -1.4807   H         1 1      0.0000
    32 C15      5.2268  -0.1853   0.1184   C.3       1 1      0.0000
    33 H15A     5.0860  -0.2275   1.2029   H         1 1      0.0000
    34 H15B     5.0653  -1.1842  -0.2980   H         1 1      0.0000
    35 H15C     6.2622   0.1073  -0.0793   H         1 1      0.0000
    36 O2       1.2060  -1.6512   0.6446   O.3       1 1      0.0000
    37 H21      0.6346  -2.4292   0.8774   H         1 1      0.0000
    38 H22      0.8746  -2.1842  -1.2883   H         1 1      0.0000
@<TRIPOS>BOND
     1     1     2   ar
     2     1     6   ar
     3     1    29    1
     4     2     3   ar
     5     2     7    1
     6     3     4   ar
     7     3    30    1
     8     4     5   ar
     9     4     8    1
    10     5     6   ar
    11     5     9    1
    12     6    10    1
    13     8    11    1
    14     8    12    1
    15     8    28    1
    16    11    13    1
    17    11    26    1
    18    11    27    1
    19    13    14    1
    20    14    15    1
    21    14    16    1
    22    14    31    1
    23    16    17    1
    24    16    20    2
    25    17    18    1
    26    17    19    1
    27    17    32    1
    28    20    21    1
    29    20    22    1
    30    22    23    1
    31    22    24    1
    32    22    25    1
    33    32    33    1
    34    32    34    1
    35    32    35    1
    36    13    36    1
    37    36    37    1
    38    13    38    1
@<TRIPOS>SUBSTRUCTURE
     1 1           1 GROUP             0 ****  ****    0  
@<TRIPOS>MOLECULE
Molecule Name_00001_00244
    38    38     1     0     0
SMALL
NO_CHARGES
****
Generated from the CSD

@<TRIPOS>ATOM
     1 C5      -5.5765   0.4706  -0.2634   C.ar      1 1      0.0000
     2 C4      -4.9055   0.4203   0.9637   C.ar      1 1      0.0000
     3 C3      -3.5663   0.0186   1.0137   C.ar      1 1      0.0000
     4 C8      -2.8845  -0.3369  -0.1605   C.ar      1 1      0.0000
     5 C7      -3.5671  -0.2914  -1.3856   C.ar      1 1      0.0000
     6 C6      -4.9067   0.1094  -1.4376   C.ar      1 1      0.0000
     7 H4      -5.4256   0.6858   1.8784   H         1 1      0.0000
     8 C9      -1.4101  -0.7029  -0.1126   C.3       1 1      0.0000
     9 H7      -3.0558  -0.5837  -2.3001   H         1 1      0.0000
    10 H6      -5.4276   0.1333  -2.3894   H         1 1      0.0000
    11 C10     -0.6898   0.1433   0.9652   C.3       1 1      0.0000
    12 H9A     -1.2863  -1.7667   0.1186   H         1 1      0.0000
    13 C11      0.7868  -0.1201   1.0588   C.3       1 1      0.0000
    14 C12      1.6429   0.3436  -0.1317   C.3       1 1      0.0000
    15 H12A     1.5555   1.4346  -0.2328   H         1 1      0.0000
    16 C13      3.1110  -0.0256  -0.1475   C.2       1 1      0.0000
    17 C14      4.0995   1.0351   0.2407   C.3       1 1      0.0000
    18 H14B     5.0260   0.5561   0.5765   H         1 1      0.0000
    19 H14A     3.7162   1.6453   1.0634   H         1 1      0.0000
    20 N        3.4694  -1.2341  -0.4673   N.pl3     1 1      0.0000
    21 HN       2.6686  -1.8829  -0.6705   H         1 1      0.0000
    22 C        4.8645  -1.7567  -0.5599   C.3       1 1      0.0000
    23 H1A      4.7993  -2.8307  -0.7394   H         1 1      0.0000
    24 H1C      5.3861  -1.2792  -1.3955   H         1 1      0.0000
    25 H1B      5.4039  -1.5733   0.3726   H         1 1      0.0000
    26 H10A    -0.8438   1.2165   0.7677   H         1 1      0.0000
    27 H10B    -1.1429  -0.0412   1.9523   H         1 1      0.0000
    28 H9B     -0.9395  -0.5281  -1.0864   H         1 1      0.0000
    29 H5      -6.6162   0.7785  -0.3029   H         1 1      0.0000
    30 H3      -3.0544  -0.0325   1.9722   H         1 1      0.0000
    31 H12B     1.1894  -0.0639  -1.0503   H         1 1      0.0000
    32 C15      4.4237   1.9565  -0.9841   C.3       1 1      0.0000
    33 H15A     4.8614   1.3845  -1.8081   H         1 1      0.0000
    34 H15B     3.5274   2.4688  -1.3468   H         1 1      0.0000
    35 H15C     5.1498   2.7124  -0.6710   H         1 1      0.0000
    36 O2       1.2754   0.5090   2.2271   O.3       1 1      0.0000
    37 H21      0.8115   0.1367   3.0222   H         1 1      0.0000
    38 H22      0.9279  -1.1938   1.1737   H         1 1      0.0000
@<TRIPOS>BOND
     1     1     2   ar
     2     1     6   ar
     3     1    29    1
     4     2     3   ar
     5     2     7    1
     6     3     4   ar
     7     3    30    1
     8     4     5   ar
     9     4     8    1
    10     5     6   ar
    11     5     9    1
    12     6    10    1
    13     8    11    1
    14     8    12    1
    15     8    28    1
    16    11    13    1
    17    11    26    1
    18    11    27    1
    19    13    14    1
    20    14    15    1
    21    14    16    1
    22    14    31    1
    23    16    17    1
    24    16    20    2
    25    17    18    1
    26    17    19    1
    27    17    32    1
    28    20    21    1
    29    20    22    1
    30    22    23    1
    31    22    24    1
    32    22    25    1
    33    32    33    1
    34    32    34    1
    35    32    35    1
    36    13    36    1
    37    36    37    1
    38    13    38    1
@<TRIPOS>SUBSTRUCTURE
     1 1           1 GROUP             0 ****  ****    0  
@<TRIPOS>MOLECULE
Molecule Name_00001_00245
    38    38     1     0     0
SMALL
NO_CHARGES
****
Generated from the CSD

@<TRIPOS>ATOM
     1 C5      -4.7798   1.1756  -0.9062   C.ar      1 1      0.0000
     2 C4      -3.5725   1.0735  -1.6066   C.ar      1 1      0.0000
     3 C3      -2.5004   0.3643  -1.0545   C.ar      1 1      0.0000
     4 C8      -2.6231  -0.2493   0.2019   C.ar      1 1      0.0000
     5 C7      -3.8344  -0.1351   0.9009   C.ar      1 1      0.0000
     6 C6      -4.9076   0.5743   0.3507   C.ar      1 1      0.0000
     7 H4      -3.4645   1.5506  -2.5753   H         1 1      0.0000
     8 C9      -1.4823  -1.0796   0.7668   C.3       1 1      0.0000
     9 H7      -3.9355  -0.5891   1.8842   H         1 1      0.0000
    10 H6      -5.8373   0.6633   0.9034   H         1 1      0.0000
    11 C10     -0.1942  -0.2244   0.8456   C.3       1 1      0.0000
    12 H9A     -1.7349  -1.4482   1.7672   H         1 1      0.0000
    13 C11      0.9937  -0.9631   1.3947   C.3       1 1      0.0000
    14 C12      2.3191  -0.1849   1.4512   C.3       1 1      0.0000
    15 H12A     3.0376  -0.7448   2.0663   H         1 1      0.0000
    16 C13      2.9895   0.1874   0.1460   C.2       1 1      0.0000
    17 C14      2.3824   1.3020  -0.6552   C.3       1 1      0.0000
    18 H14B     3.1567   2.0430  -0.8827   H         1 1      0.0000
    19 H14A     1.5898   1.8025  -0.0917   H         1 1      0.0000
    20 N        4.0659  -0.4390  -0.2285   N.pl3     1 1      0.0000
    21 HN       4.4037  -1.1635   0.4530   H         1 1      0.0000
    22 C        4.8335  -0.2197  -1.4898   C.3       1 1      0.0000
    23 H1A      5.8046  -0.7017  -1.3687   H         1 1      0.0000
    24 H1C      4.3034  -0.6760  -2.3320   H         1 1      0.0000
    25 H1B      4.9747   0.8487  -1.6703   H         1 1      0.0000
    26 H10A     0.0634   0.1630  -0.1534   H         1 1      0.0000
    27 H10B    -0.3726   0.6666   1.4687   H         1 1      0.0000
    28 H9B     -1.2979  -1.9571   0.1374   H         1 1      0.0000
    29 H5      -5.6107   1.7285  -1.3318   H         1 1      0.0000
    30 H3      -1.5597   0.3008  -1.5972   H         1 1      0.0000
    31 H12B     2.1364   0.7493   2.0075   H         1 1      0.0000
    32 C15      1.7979   0.7538  -2.0013   C.3       1 1      0.0000
    33 H15A     2.5927   0.4039  -2.6674   H         1 1      0.0000
    34 H15B     1.0961  -0.0674  -1.8270   H         1 1      0.0000
    35 H15C     1.2626   1.5635  -2.5060   H         1 1      0.0000
    36 O2       0.6790  -1.3970   2.7032   O.3       1 1      0.0000
    37 H21     -0.0134  -2.1074   2.6588   H         1 1      0.0000
    38 H22      1.1514  -1.8471   0.7785   H         1 1      0.0000
@<TRIPOS>BOND
     1     1     2   ar
     2     1     6   ar
     3     1    29    1
     4     2     3   ar
     5     2     7    1
     6     3     4   ar
     7     3    30    1
     8     4     5   ar
     9     4     8    1
    10     5     6   ar
    11     5     9    1
    12     6    10    1
    13     8    11    1
    14     8    12    1
    15     8    28    1
    16    11    13    1
    17    11    26    1
    18    11    27    1
    19    13    14    1
    20    14    15    1
    21    14    16    1
    22    14    31    1
    23    16    17    1
    24    16    20    2
    25    17    18    1
    26    17    19    1
    27    17    32    1
    28    20    21    1
    29    20    22    1
    30    22    23    1
    31    22    24    1
    32    22    25    1
    33    32    33    1
    34    32    34    1
    35    32    35    1
    36    13    36    1
    37    36    37    1
    38    13    38    1
@<TRIPOS>SUBSTRUCTURE
     1 1           1 GROUP             0 ****  ****    0  
@<TRIPOS>MOLECULE
Molecule Name_00001_00246
    38    38     1     0     0
SMALL
NO_CHARGES
****
Generated from the CSD

@<TRIPOS>ATOM
     1 C5      -5.6232   0.4001  -0.4248   C.ar      1 1      0.0000
     2 C4      -4.8648   1.2399   0.3987   C.ar      1 1      0.0000
     3 C3      -3.5682   0.8702   0.7720   C.ar      1 1      0.0000
     4 C8      -3.0165  -0.3412   0.3269   C.ar      1 1      0.0000
     5 C7      -3.7867  -1.1811  -0.4919   C.ar      1 1      0.0000
     6 C6      -5.0839  -0.8134  -0.8657   C.ar      1 1      0.0000
     7 H4      -5.2847   2.1752   0.7546   H         1 1      0.0000
     8 C9      -1.5826  -0.7065   0.6739   C.3       1 1      0.0000
     9 H7      -3.3779  -2.1318  -0.8270   H         1 1      0.0000
    10 H6      -5.6739  -1.4741  -1.4927   H         1 1      0.0000
    11 C10     -0.6083   0.3187   0.0442   C.3       1 1      0.0000
    12 H9A     -1.4424  -0.7203   1.7605   H         1 1      0.0000
    13 C11      0.8395   0.0392   0.3338   C.3       1 1      0.0000
    14 C12      1.8469   0.4402  -0.7570   C.3       1 1      0.0000
    15 H12A     1.7937   1.5270  -0.9121   H         1 1      0.0000
    16 C13      3.2980   0.0504  -0.5728   C.2       1 1      0.0000
    17 C14      4.2503   1.1128  -0.1066   C.3       1 1      0.0000
    18 H14B     3.9936   2.0617  -0.5906   H         1 1      0.0000
    19 H14A     5.2798   0.8621  -0.3776   H         1 1      0.0000
    20 N        3.6705  -1.1756  -0.7955   N.pl3     1 1      0.0000
    21 HN       2.8892  -1.8213  -1.0714   H         1 1      0.0000
    22 C        5.0560  -1.7209  -0.6903   C.3       1 1      0.0000
    23 H1A      4.9932  -2.8006  -0.8328   H         1 1      0.0000
    24 H1C      5.6872  -1.2868  -1.4723   H         1 1      0.0000
    25 H1B      5.4777  -1.5054   0.2945   H         1 1      0.0000
    26 H10A    -0.7487   0.3508  -1.0484   H         1 1      0.0000
    27 H10B    -0.8486   1.3330   0.4007   H         1 1      0.0000
    28 H9B     -1.3422  -1.7099   0.3056   H         1 1      0.0000
    29 H5      -6.6303   0.6841  -0.7119   H         1 1      0.0000
    30 H3      -2.9891   1.5202   1.4242   H         1 1      0.0000
    31 H12B     1.5045   0.0005  -1.7083   H         1 1      0.0000
    32 C15      4.1500   1.2955   1.4461   C.3       1 1      0.0000
    33 H15A     3.2785   1.8977   1.7208   H         1 1      0.0000
    34 H15B     4.0885   0.3307   1.9585   H         1 1      0.0000
    35 H15C     5.0468   1.8152   1.7960   H         1 1      0.0000
    36 O2       1.1896   0.7106   1.5280   O.3       1 1      0.0000
    37 H21      0.6227   0.3788   2.2727   H         1 1      0.0000
    38 H22      0.9448  -1.0305   0.5088   H         1 1      0.0000
@<TRIPOS>BOND
     1     1     2   ar
     2     1     6   ar
     3     1    29    1
     4     2     3   ar
     5     2     7    1
     6     3     4   ar
     7     3    30    1
     8     4     5   ar
     9     4     8    1
    10     5     6   ar
    11     5     9    1
    12     6    10    1
    13     8    11    1
    14     8    12    1
    15     8    28    1
    16    11    13    1
    17    11    26    1
    18    11    27    1
    19    13    14    1
    20    14    15    1
    21    14    16    1
    22    14    31    1
    23    16    17    1
    24    16    20    2
    25    17    18    1
    26    17    19    1
    27    17    32    1
    28    20    21    1
    29    20    22    1
    30    22    23    1
    31    22    24    1
    32    22    25    1
    33    32    33    1
    34    32    34    1
    35    32    35    1
    36    13    36    1
    37    36    37    1
    38    13    38    1
@<TRIPOS>SUBSTRUCTURE
     1 1           1 GROUP             0 ****  ****    0  
@<TRIPOS>MOLECULE
Molecule Name_00001_00247
    38    38     1     0     0
SMALL
NO_CHARGES
****
Generated from the CSD

@<TRIPOS>ATOM
     1 C5      -4.6321   0.6709   0.8539   C.ar      1 1      0.0000
     2 C4      -4.3399  -0.6251   0.4140   C.ar      1 1      0.0000
     3 C3      -3.0256  -0.9732   0.0846   C.ar      1 1      0.0000
     4 C8      -1.9907  -0.0309   0.1909   C.ar      1 1      0.0000
     5 C7      -2.2938   1.2685   0.6250   C.ar      1 1      0.0000
     6 C6      -3.6078   1.6188   0.9543   C.ar      1 1      0.0000
     7 H4      -5.1339  -1.3590   0.3210   H         1 1      0.0000
     8 C9      -0.5533  -0.4316  -0.0979   C.3       1 1      0.0000
     9 H7      -1.5041   2.0135   0.6925   H         1 1      0.0000
    10 H6      -3.8326   2.6289   1.2813   H         1 1      0.0000
    11 C10     -0.2572  -0.2855  -1.6104   C.3       1 1      0.0000
    12 H9A      0.1416   0.1966   0.4703   H         1 1      0.0000
    13 C11      1.1227  -0.7305  -2.0058   C.3       1 1      0.0000
    14 C12      2.2942   0.1078  -1.4672   C.3       1 1      0.0000
    15 H12A     2.1905   1.1414  -1.8265   H         1 1      0.0000
    16 C13      2.5274   0.1388   0.0282   C.2       1 1      0.0000
    17 C14      3.0417   1.4159   0.6261   C.3       1 1      0.0000
    18 H14B     3.7779   1.8590  -0.0538   H         1 1      0.0000
    19 H14A     3.5349   1.2289   1.5842   H         1 1      0.0000
    20 N        2.2591  -0.9123   0.7454   N.pl3     1 1      0.0000
    21 HN       1.8618  -1.7176   0.2003   H         1 1      0.0000
    22 C        2.4541  -1.0623   2.2176   C.3       1 1      0.0000
    23 H1A      2.0235  -2.0217   2.5076   H         1 1      0.0000
    24 H1C      3.5230  -1.0571   2.4539   H         1 1      0.0000
    25 H1B      1.9476  -0.2564   2.7542   H         1 1      0.0000
    26 H10A    -0.9933  -0.8593  -2.1963   H         1 1      0.0000
    27 H10B    -0.3900   0.7637  -1.9194   H         1 1      0.0000
    28 H9B     -0.3748  -1.4681   0.2089   H         1 1      0.0000
    29 H5      -5.6518   0.9430   1.1062   H         1 1      0.0000
    30 H3      -2.8070  -1.9778  -0.2707   H         1 1      0.0000
    31 H12B     3.2185  -0.2652  -1.9384   H         1 1      0.0000
    32 C15      1.8698   2.4347   0.8336   C.3       1 1      0.0000
    33 H15A     1.3882   2.6866  -0.1163   H         1 1      0.0000
    34 H15B     1.1139   2.0397   1.5191   H         1 1      0.0000
    35 H15C     2.2776   3.3545   1.2631   H         1 1      0.0000
    36 O2       1.2980  -2.0653  -1.5735   O.3       1 1      0.0000
    37 H21      0.6163  -2.6450  -2.0041   H         1 1      0.0000
    38 H22      1.1777  -0.7216  -3.0934   H         1 1      0.0000
@<TRIPOS>BOND
     1     1     2   ar
     2     1     6   ar
     3     1    29    1
     4     2     3   ar
     5     2     7    1
     6     3     4   ar
     7     3    30    1
     8     4     5   ar
     9     4     8    1
    10     5     6   ar
    11     5     9    1
    12     6    10    1
    13     8    11    1
    14     8    12    1
    15     8    28    1
    16    11    13    1
    17    11    26    1
    18    11    27    1
    19    13    14    1
    20    14    15    1
    21    14    16    1
    22    14    31    1
    23    16    17    1
    24    16    20    2
    25    17    18    1
    26    17    19    1
    27    17    32    1
    28    20    21    1
    29    20    22    1
    30    22    23    1
    31    22    24    1
    32    22    25    1
    33    32    33    1
    34    32    34    1
    35    32    35    1
    36    13    36    1
    37    36    37    1
    38    13    38    1
@<TRIPOS>SUBSTRUCTURE
     1 1           1 GROUP             0 ****  ****    0  
@<TRIPOS>MOLECULE
Molecule Name_00001_00248
    38    38     1     0     0
SMALL
NO_CHARGES
****
Generated from the CSD

@<TRIPOS>ATOM
     1 C5      -4.8463   0.4176   0.8370   C.ar      1 1      0.0000
     2 C4      -4.4709  -0.8376   0.3449   C.ar      1 1      0.0000
     3 C3      -3.1339  -1.0913   0.0202   C.ar      1 1      0.0000
     4 C8      -2.1593  -0.0946   0.1834   C.ar      1 1      0.0000
     5 C7      -2.5456   1.1636   0.6698   C.ar      1 1      0.0000
     6 C6      -3.8824   1.4196   0.9944   C.ar      1 1      0.0000
     7 H4      -5.2178  -1.6128   0.2077   H         1 1      0.0000
     8 C9      -0.6969  -0.3952  -0.1011   C.3       1 1      0.0000
     9 H7      -1.8033   1.9507   0.7818   H         1 1      0.0000
    10 H6      -4.1718   2.3987   1.3622   H         1 1      0.0000
    11 C10     -0.3915  -0.1639  -1.6012   C.3       1 1      0.0000
    12 H9A     -0.0482   0.2473   0.5045   H         1 1      0.0000
    13 C11      1.0175  -0.5074  -1.9950   C.3       1 1      0.0000
    14 C12      2.1295   0.3745  -1.4025   C.3       1 1      0.0000
    15 H12A     1.9679   1.4151  -1.7174   H         1 1      0.0000
    16 C13      2.3419   0.3522   0.0962   C.2       1 1      0.0000
    17 C14      2.7707   1.6297   0.7574   C.3       1 1      0.0000
    18 H14B     2.4966   1.5941   1.8176   H         1 1      0.0000
    19 H14A     2.2697   2.4911   0.3067   H         1 1      0.0000
    20 N        2.1288  -0.7442   0.7622   N.pl3     1 1      0.0000
    21 HN       1.7877  -1.5466   0.1762   H         1 1      0.0000
    22 C        2.3144  -0.9483   2.2292   C.3       1 1      0.0000
    23 H1A      1.9390  -1.9437   2.4701   H         1 1      0.0000
    24 H1C      3.3781  -0.8897   2.4814   H         1 1      0.0000
    25 H1B      1.7536  -0.1989   2.7931   H         1 1      0.0000
    26 H10A    -1.0843  -0.7538  -2.2227   H         1 1      0.0000
    27 H10B    -0.5836   0.8883  -1.8656   H         1 1      0.0000
    28 H9B     -0.4598  -1.4319   0.1623   H         1 1      0.0000
    29 H5      -5.8835   0.6166   1.0857   H         1 1      0.0000
    30 H3      -2.8507  -2.0641  -0.3757   H         1 1      0.0000
    31 H12B     3.0804   0.0790  -1.8758   H         1 1      0.0000
    32 C15      4.3226   1.8114   0.6436   C.3       1 1      0.0000
    33 H15A     4.8566   0.9917   1.1341   H         1 1      0.0000
    34 H15B     4.6427   1.8663  -0.4013   H         1 1      0.0000
    35 H15C     4.6030   2.7453   1.1396   H         1 1      0.0000
    36 O2       1.2679  -1.8474  -1.6194   O.3       1 1      0.0000
    37 H21      0.6278  -2.4468  -2.0853   H         1 1      0.0000
    38 H22      1.0853  -0.4464  -3.0802   H         1 1      0.0000
@<TRIPOS>BOND
     1     1     2   ar
     2     1     6   ar
     3     1    29    1
     4     2     3   ar
     5     2     7    1
     6     3     4   ar
     7     3    30    1
     8     4     5   ar
     9     4     8    1
    10     5     6   ar
    11     5     9    1
    12     6    10    1
    13     8    11    1
    14     8    12    1
    15     8    28    1
    16    11    13    1
    17    11    26    1
    18    11    27    1
    19    13    14    1
    20    14    15    1
    21    14    16    1
    22    14    31    1
    23    16    17    1
    24    16    20    2
    25    17    18    1
    26    17    19    1
    27    17    32    1
    28    20    21    1
    29    20    22    1
    30    22    23    1
    31    22    24    1
    32    22    25    1
    33    32    33    1
    34    32    34    1
    35    32    35    1
    36    13    36    1
    37    36    37    1
    38    13    38    1
@<TRIPOS>SUBSTRUCTURE
     1 1           1 GROUP             0 ****  ****    0  
@<TRIPOS>MOLECULE
Molecule Name_00001_00249
    38    38     1     0     0
SMALL
NO_CHARGES
****
Generated from the CSD

@<TRIPOS>ATOM
     1 C5      -5.5907   0.3578   0.3204   C.ar      1 1      0.0000
     2 C4      -4.7042  -0.0991   1.3022   C.ar      1 1      0.0000
     3 C3      -3.3253  -0.0735   1.0674   C.ar      1 1      0.0000
     4 C8      -2.8184   0.4082  -0.1496   C.ar      1 1      0.0000
     5 C7      -3.7146   0.8568  -1.1317   C.ar      1 1      0.0000
     6 C6      -5.0941   0.8313  -0.8990   C.ar      1 1      0.0000
     7 H4      -5.0861  -0.4806   2.2436   H         1 1      0.0000
     8 C9      -1.3181   0.5026  -0.3741   C.3       1 1      0.0000
     9 H7      -3.3353   1.2137  -2.0867   H         1 1      0.0000
    10 H6      -5.7788   1.1731  -1.6685   H         1 1      0.0000
    11 C10     -0.6646  -0.8862  -0.1717   C.3       1 1      0.0000
    12 H9A     -1.1036   0.8605  -1.3872   H         1 1      0.0000
    13 C11      0.8246  -0.8928  -0.3735   C.3       1 1      0.0000
    14 C12      1.6625  -0.1478   0.6792   C.3       1 1      0.0000
    15 H12A     1.5073  -0.6189   1.6601   H         1 1      0.0000
    16 C13      3.1511  -0.0060   0.4432   C.2       1 1      0.0000
    17 C14      3.6134   0.2246  -0.9661   C.3       1 1      0.0000
    18 H14B     3.0060  -0.3826  -1.6465   H         1 1      0.0000
    19 H14A     4.6588  -0.0725  -1.0887   H         1 1      0.0000
    20 N        3.9727  -0.0626   1.4497   N.pl3     1 1      0.0000
    21 HN       3.5053  -0.1815   2.3829   H         1 1      0.0000
    22 C        5.4614   0.0298   1.3934   C.3       1 1      0.0000
    23 H1A      5.8255   0.0596   2.4212   H         1 1      0.0000
    24 H1C      5.8700  -0.8513   0.8881   H         1 1      0.0000
    25 H1B      5.7683   0.9383   0.8696   H         1 1      0.0000
    26 H10A    -0.8842  -1.2628   0.8404   H         1 1      0.0000
    27 H10B    -1.1158  -1.6176  -0.8611   H         1 1      0.0000
    28 H9B     -0.8702   1.2200   0.3223   H         1 1      0.0000
    29 H5      -6.6606   0.3349   0.5000   H         1 1      0.0000
    30 H3      -2.6420  -0.4435   1.8286   H         1 1      0.0000
    31 H12B     1.2458   0.8676   0.7828   H         1 1      0.0000
    32 C15      3.4514   1.7333  -1.3559   C.3       1 1      0.0000
    33 H15A     2.4055   2.0498  -1.2968   H         1 1      0.0000
    34 H15B     4.0531   2.3796  -0.7097   H         1 1      0.0000
    35 H15C     3.7896   1.8665  -2.3877   H         1 1      0.0000
    36 O2       1.2596  -2.2376  -0.4147   O.3       1 1      0.0000
    37 H21      0.8117  -2.7076  -1.1660   H         1 1      0.0000
    38 H22      1.0322  -0.4447  -1.3440   H         1 1      0.0000
@<TRIPOS>BOND
     1     1     2   ar
     2     1     6   ar
     3     1    29    1
     4     2     3   ar
     5     2     7    1
     6     3     4   ar
     7     3    30    1
     8     4     5   ar
     9     4     8    1
    10     5     6   ar
    11     5     9    1
    12     6    10    1
    13     8    11    1
    14     8    12    1
    15     8    28    1
    16    11    13    1
    17    11    26    1
    18    11    27    1
    19    13    14    1
    20    14    15    1
    21    14    16    1
    22    14    31    1
    23    16    17    1
    24    16    20    2
    25    17    18    1
    26    17    19    1
    27    17    32    1
    28    20    21    1
    29    20    22    1
    30    22    23    1
    31    22    24    1
    32    22    25    1
    33    32    33    1
    34    32    34    1
    35    32    35    1
    36    13    36    1
    37    36    37    1
    38    13    38    1
@<TRIPOS>SUBSTRUCTURE
     1 1           1 GROUP             0 ****  ****    0  
@<TRIPOS>MOLECULE
Molecule Name_00001_00250
    38    38     1     0     0
SMALL
NO_CHARGES
****
Generated from the CSD

@<TRIPOS>ATOM
     1 C5      -5.6360  -0.1054  -0.0696   C.ar      1 1      0.0000
     2 C4      -4.7294  -0.7700  -0.9032   C.ar      1 1      0.0000
     3 C3      -3.3552  -0.6777  -0.6579   C.ar      1 1      0.0000
     4 C8      -2.8730   0.0788   0.4215   C.ar      1 1      0.0000
     5 C7      -3.7885   0.7485   1.2475   C.ar      1 1      0.0000
     6 C6      -5.1633   0.6581   1.0034   C.ar      1 1      0.0000
     7 H4      -5.0913  -1.3514  -1.7451   H         1 1      0.0000
     8 C9      -1.3851   0.1184   0.7289   C.3       1 1      0.0000
     9 H7      -3.4265   1.3543   2.0752   H         1 1      0.0000
    10 H6      -5.8622   1.1866   1.6436   H         1 1      0.0000
    11 C10     -0.6019   0.6159  -0.5104   C.3       1 1      0.0000
    12 H9A     -1.1859   0.7847   1.5756   H         1 1      0.0000
    13 C11      0.8844   0.6889  -0.3017   C.3       1 1      0.0000
    14 C12      1.6226  -0.6521  -0.1524   C.3       1 1      0.0000
    15 H12A     1.4968  -1.2353  -1.0755   H         1 1      0.0000
    16 C13      3.0936  -0.6263   0.2044   C.2       1 1      0.0000
    17 C14      3.5573   0.4255   1.1696   C.3       1 1      0.0000
    18 H14B     4.4894   0.0939   1.6406   H         1 1      0.0000
    19 H14A     2.8174   0.5861   1.9589   H         1 1      0.0000
    20 N        3.8972  -1.5125  -0.3055   N.pl3     1 1      0.0000
    21 HN       3.4264  -2.2154  -0.9283   H         1 1      0.0000
    22 C        5.3699  -1.6146  -0.0845   C.3       1 1      0.0000
    23 H1A      5.7093  -2.5323  -0.5667   H         1 1      0.0000
    24 H1C      5.8748  -0.7564  -0.5393   H         1 1      0.0000
    25 H1B      5.5937  -1.6581   0.9842   H         1 1      0.0000
    26 H10A    -0.8043  -0.0396  -1.3729   H         1 1      0.0000
    27 H10B    -0.9643   1.6128  -0.8083   H         1 1      0.0000
    28 H9B     -1.0248  -0.8770   1.0110   H         1 1      0.0000
    29 H5      -6.7019  -0.1732  -0.2611   H         1 1      0.0000
    30 H3      -2.6547  -1.1846  -1.3181   H         1 1      0.0000
    31 H12B     1.1038  -1.2362   0.6255   H         1 1      0.0000
    32 C15      3.8230   1.7763   0.4220   C.3       1 1      0.0000
    33 H15A     4.2862   1.6065  -0.5549   H         1 1      0.0000
    34 H15B     2.8978   2.3431   0.2804   H         1 1      0.0000
    35 H15C     4.5086   2.3804   1.0235   H         1 1      0.0000
    36 O2       1.4509   1.3869  -1.3931   O.3       1 1      0.0000
    37 H21      1.0673   2.3018  -1.4360   H         1 1      0.0000
    38 H22      1.0670   1.2728   0.5993   H         1 1      0.0000
@<TRIPOS>BOND
     1     1     2   ar
     2     1     6   ar
     3     1    29    1
     4     2     3   ar
     5     2     7    1
     6     3     4   ar
     7     3    30    1
     8     4     5   ar
     9     4     8    1
    10     5     6   ar
    11     5     9    1
    12     6    10    1
    13     8    11    1
    14     8    12    1
    15     8    28    1
    16    11    13    1
    17    11    26    1
    18    11    27    1
    19    13    14    1
    20    14    15    1
    21    14    16    1
    22    14    31    1
    23    16    17    1
    24    16    20    2
    25    17    18    1
    26    17    19    1
    27    17    32    1
    28    20    21    1
    29    20    22    1
    30    22    23    1
    31    22    24    1
    32    22    25    1
    33    32    33    1
    34    32    34    1
    35    32    35    1
    36    13    36    1
    37    36    37    1
    38    13    38    1
@<TRIPOS>SUBSTRUCTURE
     1 1           1 GROUP             0 ****  ****    0  
@<TRIPOS>MOLECULE
Molecule Name_00001_00251
    38    38     1     0     0
SMALL
NO_CHARGES
****
Generated from the CSD

@<TRIPOS>ATOM
     1 C5      -4.8683   0.7394   0.1219   C.ar      1 1      0.0000
     2 C4      -3.9664   1.2069  -0.8406   C.ar      1 1      0.0000
     3 C3      -2.7295   0.5749  -1.0070   C.ar      1 1      0.0000
     4 C8      -2.3811  -0.5296  -0.2141   C.ar      1 1      0.0000
     5 C7      -3.2879  -0.9869   0.7543   C.ar      1 1      0.0000
     6 C6      -4.5252  -0.3556   0.9226   C.ar      1 1      0.0000
     7 H4      -4.2228   2.0649  -1.4538   H         1 1      0.0000
     8 C9      -1.0680  -1.2590  -0.4459   C.3       1 1      0.0000
     9 H7      -3.0215  -1.8293   1.3887   H         1 1      0.0000
    10 H6      -5.2158  -0.7123   1.6799   H         1 1      0.0000
    11 C10     -0.1677  -1.1390   0.8079   C.3       1 1      0.0000
    12 H9A     -1.2501  -2.3176  -0.6619   H         1 1      0.0000
    13 C11      0.4119   0.2325   1.0115   C.3       1 1      0.0000
    14 C12      1.3500   0.7512  -0.0914   C.3       1 1      0.0000
    15 H12A     1.4949   1.8327   0.0406   H         1 1      0.0000
    16 C13      2.7072   0.0986  -0.2454   C.2       1 1      0.0000
    17 C14      3.6032   0.6053  -1.3378   C.3       1 1      0.0000
    18 H14B     2.9977   0.8288  -2.2232   H         1 1      0.0000
    19 H14A     4.3454  -0.1482  -1.6165   H         1 1      0.0000
    20 N        3.0645  -0.8486   0.5709   N.pl3     1 1      0.0000
    21 HN       2.3559  -1.0683   1.3148   H         1 1      0.0000
    22 C        4.3459  -1.6137   0.5449   C.3       1 1      0.0000
    23 H1A      4.3653  -2.2478   1.4323   H         1 1      0.0000
    24 H1C      4.3866  -2.2410  -0.3514   H         1 1      0.0000
    25 H1B      5.1989  -0.9311   0.5637   H         1 1      0.0000
    26 H10A    -0.7370  -1.4177   1.7093   H         1 1      0.0000
    27 H10B     0.6592  -1.8644   0.7472   H         1 1      0.0000
    28 H9B     -0.5435  -0.8394  -1.3114   H         1 1      0.0000
    29 H5      -5.8264   1.2312   0.2544   H         1 1      0.0000
    30 H3      -2.0268   0.9520  -1.7468   H         1 1      0.0000
    31 H12B     0.8234   0.6507  -1.0548   H         1 1      0.0000
    32 C15      4.3346   1.9141  -0.8837   C.3       1 1      0.0000
    33 H15A     3.6198   2.7089  -0.6492   H         1 1      0.0000
    34 H15B     4.9648   1.7358  -0.0071   H         1 1      0.0000
    35 H15C     4.9726   2.2605  -1.7021   H         1 1      0.0000
    36 O2      -0.6565   1.1483   1.1507   O.3       1 1      0.0000
    37 H21     -1.2114   0.8930   1.9336   H         1 1      0.0000
    38 H22      0.9689   0.2242   1.9472   H         1 1      0.0000
@<TRIPOS>BOND
     1     1     2   ar
     2     1     6   ar
     3     1    29    1
     4     2     3   ar
     5     2     7    1
     6     3     4   ar
     7     3    30    1
     8     4     5   ar
     9     4     8    1
    10     5     6   ar
    11     5     9    1
    12     6    10    1
    13     8    11    1
    14     8    12    1
    15     8    28    1
    16    11    13    1
    17    11    26    1
    18    11    27    1
    19    13    14    1
    20    14    15    1
    21    14    16    1
    22    14    31    1
    23    16    17    1
    24    16    20    2
    25    17    18    1
    26    17    19    1
    27    17    32    1
    28    20    21    1
    29    20    22    1
    30    22    23    1
    31    22    24    1
    32    22    25    1
    33    32    33    1
    34    32    34    1
    35    32    35    1
    36    13    36    1
    37    36    37    1
    38    13    38    1
@<TRIPOS>SUBSTRUCTURE
     1 1           1 GROUP             0 ****  ****    0  
@<TRIPOS>MOLECULE
Molecule Name_00001_00252
    38    38     1     0     0
SMALL
NO_CHARGES
****
Generated from the CSD

@<TRIPOS>ATOM
     1 C5      -4.8335   0.3605   0.6053   C.ar      1 1      0.0000
     2 C4      -3.8895   1.3772   0.7891   C.ar      1 1      0.0000
     3 C3      -2.6179   1.2640   0.2170   C.ar      1 1      0.0000
     4 C8      -2.2764   0.1350  -0.5437   C.ar      1 1      0.0000
     5 C7      -3.2261  -0.8834  -0.7163   C.ar      1 1      0.0000
     6 C6      -4.4983  -0.7724  -0.1443   C.ar      1 1      0.0000
     7 H4      -4.1407   2.2508   1.3819   H         1 1      0.0000
     8 C9      -0.9202   0.0477  -1.2242   C.3       1 1      0.0000
     9 H7      -2.9671  -1.7726  -1.2869   H         1 1      0.0000
    10 H6      -5.2226  -1.5696  -0.2773   H         1 1      0.0000
    11 C10     -0.1132  -1.1396  -0.6448   C.3       1 1      0.0000
    12 H9A     -1.0411  -0.0885  -2.3046   H         1 1      0.0000
    13 C11      0.3912  -0.9084   0.7518   C.3       1 1      0.0000
    14 C12      1.3786   0.2556   0.9403   C.3       1 1      0.0000
    15 H12A     1.4671   0.4805   2.0126   H         1 1      0.0000
    16 C13      2.7702   0.1180   0.3605   C.2       1 1      0.0000
    17 C14      3.7153   1.2704   0.5385   C.3       1 1      0.0000
    18 H14B     4.7451   0.9055   0.4552   H         1 1      0.0000
    19 H14A     3.5961   1.7256   1.5258   H         1 1      0.0000
    20 N        3.1120  -0.9816  -0.2438   N.pl3     1 1      0.0000
    21 HN       2.3648  -1.7200  -0.2530   H         1 1      0.0000
    22 C        4.4242  -1.2731  -0.8927   C.3       1 1      0.0000
    23 H1A      4.4109  -2.3198  -1.1998   H         1 1      0.0000
    24 H1C      4.5528  -0.6370  -1.7743   H         1 1      0.0000
    25 H1B      5.2436  -1.1083  -0.1888   H         1 1      0.0000
    26 H10A    -0.7297  -2.0530  -0.6494   H         1 1      0.0000
    27 H10B     0.7467  -1.3628  -1.2964   H         1 1      0.0000
    28 H9B     -0.3569   0.9759  -1.0778   H         1 1      0.0000
    29 H5      -5.8188   0.4455   1.0517   H         1 1      0.0000
    30 H3      -1.8836   2.0508   0.3756   H         1 1      0.0000
    31 H12B     0.9234   1.1570   0.4978   H         1 1      0.0000
    32 C15      3.4732   2.3535  -0.5672   C.3       1 1      0.0000
    33 H15A     3.6383   1.9441  -1.5686   H         1 1      0.0000
    34 H15B     2.4580   2.7584  -0.5141   H         1 1      0.0000
    35 H15C     4.1801   3.1742  -0.4141   H         1 1      0.0000
    36 O2      -0.7229  -0.6845   1.5933   O.3       1 1      0.0000
    37 H21     -1.3180  -1.4791   1.5730   H         1 1      0.0000
    38 H22      0.8832  -1.8211   1.0847   H         1 1      0.0000
@<TRIPOS>BOND
     1     1     2   ar
     2     1     6   ar
     3     1    29    1
     4     2     3   ar
     5     2     7    1
     6     3     4   ar
     7     3    30    1
     8     4     5   ar
     9     4     8    1
    10     5     6   ar
    11     5     9    1
    12     6    10    1
    13     8    11    1
    14     8    12    1
    15     8    28    1
    16    11    13    1
    17    11    26    1
    18    11    27    1
    19    13    14    1
    20    14    15    1
    21    14    16    1
    22    14    31    1
    23    16    17    1
    24    16    20    2
    25    17    18    1
    26    17    19    1
    27    17    32    1
    28    20    21    1
    29    20    22    1
    30    22    23    1
    31    22    24    1
    32    22    25    1
    33    32    33    1
    34    32    34    1
    35    32    35    1
    36    13    36    1
    37    36    37    1
    38    13    38    1
@<TRIPOS>SUBSTRUCTURE
     1 1           1 GROUP             0 ****  ****    0  
@<TRIPOS>MOLECULE
Molecule Name_00001_00253
    38    38     1     0     0
SMALL
NO_CHARGES
****
Generated from the CSD

@<TRIPOS>ATOM
     1 C5      -4.8859   1.2665  -0.7911   C.ar      1 1      0.0000
     2 C4      -4.4549   0.0884  -1.4115   C.ar      1 1      0.0000
     3 C3      -3.3799  -0.6310  -0.8786   C.ar      1 1      0.0000
     4 C8      -2.7248  -0.1811   0.2784   C.ar      1 1      0.0000
     5 C7      -3.1581   1.0054   0.8894   C.ar      1 1      0.0000
     6 C6      -4.2327   1.7267   0.3575   C.ar      1 1      0.0000
     7 H4      -4.9495  -0.2642  -2.3108   H         1 1      0.0000
     8 C9      -1.6049  -1.0020   0.8963   C.3       1 1      0.0000
     9 H7      -2.6460   1.3753   1.7749   H         1 1      0.0000
    10 H6      -4.5546   2.6473   0.8334   H         1 1      0.0000
    11 C10     -0.2539  -0.6366   0.2343   C.3       1 1      0.0000
    12 H9A     -1.5427  -0.8160   1.9743   H         1 1      0.0000
    13 C11      0.9175  -1.4047   0.7784   C.3       1 1      0.0000
    14 C12      2.1805  -0.5897   1.1038   C.3       1 1      0.0000
    15 H12A     2.8499  -1.1992   1.7272   H         1 1      0.0000
    16 C13      2.9818  -0.0171  -0.0460   C.2       1 1      0.0000
    17 C14      2.4209   1.1799  -0.7570   C.3       1 1      0.0000
    18 H14B     1.3364   1.0612  -0.8581   H         1 1      0.0000
    19 H14A     2.8463   1.2742  -1.7602   H         1 1      0.0000
    20 N        4.1234  -0.5512  -0.3665   N.pl3     1 1      0.0000
    21 HN       4.4125  -1.3536   0.2467   H         1 1      0.0000
    22 C        5.0230  -0.1332  -1.4818   C.3       1 1      0.0000
    23 H1A      5.9412  -0.7159  -1.3962   H         1 1      0.0000
    24 H1C      4.5459  -0.3454  -2.4441   H         1 1      0.0000
    25 H1B      5.2564   0.9316  -1.4059   H         1 1      0.0000
    26 H10A    -0.3094  -0.8035  -0.8536   H         1 1      0.0000
    27 H10B    -0.0551   0.4402   0.3561   H         1 1      0.0000
    28 H9B     -1.7962  -2.0726   0.7648   H         1 1      0.0000
    29 H5      -5.7172   1.8271  -1.2057   H         1 1      0.0000
    30 H3      -3.0401  -1.5381  -1.3736   H         1 1      0.0000
    31 H12B     1.8799   0.2522   1.7491   H         1 1      0.0000
    32 C15      2.7115   2.4866   0.0569   C.3       1 1      0.0000
    33 H15A     2.2517   2.4481   1.0493   H         1 1      0.0000
    34 H15B     3.7865   2.6547   0.1719   H         1 1      0.0000
    35 H15C     2.2853   3.3373  -0.4830   H         1 1      0.0000
    36 O2       0.5032  -2.0681   1.9564   O.3       1 1      0.0000
    37 H21      0.0020  -2.8905   1.7143   H         1 1      0.0000
    38 H22      1.1890  -2.1633   0.0457   H         1 1      0.0000
@<TRIPOS>BOND
     1     1     2   ar
     2     1     6   ar
     3     1    29    1
     4     2     3   ar
     5     2     7    1
     6     3     4   ar
     7     3    30    1
     8     4     5   ar
     9     4     8    1
    10     5     6   ar
    11     5     9    1
    12     6    10    1
    13     8    11    1
    14     8    12    1
    15     8    28    1
    16    11    13    1
    17    11    26    1
    18    11    27    1
    19    13    14    1
    20    14    15    1
    21    14    16    1
    22    14    31    1
    23    16    17    1
    24    16    20    2
    25    17    18    1
    26    17    19    1
    27    17    32    1
    28    20    21    1
    29    20    22    1
    30    22    23    1
    31    22    24    1
    32    22    25    1
    33    32    33    1
    34    32    34    1
    35    32    35    1
    36    13    36    1
    37    36    37    1
    38    13    38    1
@<TRIPOS>SUBSTRUCTURE
     1 1           1 GROUP             0 ****  ****    0  
@<TRIPOS>MOLECULE
Molecule Name_00001_00254
    38    38     1     0     0
SMALL
NO_CHARGES
****
Generated from the CSD

@<TRIPOS>ATOM
     1 C5      -4.8507  -0.5771   1.3088   C.ar      1 1      0.0000
     2 C4      -4.2958   0.6935   1.4992   C.ar      1 1      0.0000
     3 C3      -3.1987   1.1007   0.7326   C.ar      1 1      0.0000
     4 C8      -2.6451   0.2435  -0.2312   C.ar      1 1      0.0000
     5 C7      -3.2025  -1.0318  -0.4100   C.ar      1 1      0.0000
     6 C6      -4.2993  -1.4411   0.3563   C.ar      1 1      0.0000
     7 H4      -4.7115   1.3612   2.2470   H         1 1      0.0000
     8 C9      -1.5001   0.7148  -1.1125   C.3       1 1      0.0000
     9 H7      -2.7700  -1.7129  -1.1395   H         1 1      0.0000
    10 H6      -4.7177  -2.4325   0.2155   H         1 1      0.0000
    11 C10     -0.1475   0.4606  -0.4034   C.3       1 1      0.0000
    12 H9A     -1.5118   0.1861  -2.0720   H         1 1      0.0000
    13 C11      1.0488   0.8995  -1.1999   C.3       1 1      0.0000
    14 C12      2.2134  -0.1004  -1.2955   C.3       1 1      0.0000
    15 H12A     2.9136   0.2380  -2.0723   H         1 1      0.0000
    16 C13      2.9999  -0.4091  -0.0394   C.2       1 1      0.0000
    17 C14      3.9129   0.6582   0.4899   C.3       1 1      0.0000
    18 H14B     4.3988   1.1641  -0.3517   H         1 1      0.0000
    19 H14A     4.6940   0.2268   1.1225   H         1 1      0.0000
    20 N        2.8497  -1.5584   0.5503   N.pl3     1 1      0.0000
    21 HN       2.1436  -2.1889   0.0948   H         1 1      0.0000
    22 C        3.5618  -2.0347   1.7726   C.3       1 1      0.0000
    23 H1A      3.1171  -2.9890   2.0582   H         1 1      0.0000
    24 H1C      4.6241  -2.1801   1.5515   H         1 1      0.0000
    25 H1B      3.4434  -1.3169   2.5879   H         1 1      0.0000
    26 H10A    -0.1296   0.9752   0.5709   H         1 1      0.0000
    27 H10B    -0.0410  -0.6111  -0.1710   H         1 1      0.0000
    28 H9B     -1.5998   1.7834  -1.3325   H         1 1      0.0000
    29 H5      -5.6993  -0.8953   1.9054   H         1 1      0.0000
    30 H3      -2.7627   2.0839   0.8953   H         1 1      0.0000
    31 H12B     1.8078  -1.0530  -1.6743   H         1 1      0.0000
    32 C15      3.1009   1.7153   1.3129   C.3       1 1      0.0000
    33 H15A     2.8212   2.5730   0.6934   H         1 1      0.0000
    34 H15B     2.1937   1.2775   1.7403   H         1 1      0.0000
    35 H15C     3.7281   2.0776   2.1328   H         1 1      0.0000
    36 O2       0.6191   1.2053  -2.5118   O.3       1 1      0.0000
    37 H21      0.5603   2.1907  -2.6197   H         1 1      0.0000
    38 H22      1.4308   1.8155  -0.7515   H         1 1      0.0000
@<TRIPOS>BOND
     1     1     2   ar
     2     1     6   ar
     3     1    29    1
     4     2     3   ar
     5     2     7    1
     6     3     4   ar
     7     3    30    1
     8     4     5   ar
     9     4     8    1
    10     5     6   ar
    11     5     9    1
    12     6    10    1
    13     8    11    1
    14     8    12    1
    15     8    28    1
    16    11    13    1
    17    11    26    1
    18    11    27    1
    19    13    14    1
    20    14    15    1
    21    14    16    1
    22    14    31    1
    23    16    17    1
    24    16    20    2
    25    17    18    1
    26    17    19    1
    27    17    32    1
    28    20    21    1
    29    20    22    1
    30    22    23    1
    31    22    24    1
    32    22    25    1
    33    32    33    1
    34    32    34    1
    35    32    35    1
    36    13    36    1
    37    36    37    1
    38    13    38    1
@<TRIPOS>SUBSTRUCTURE
     1 1           1 GROUP             0 ****  ****    0  
@<TRIPOS>MOLECULE
Molecule Name_00001_00255
    38    38     1     0     0
SMALL
NO_CHARGES
****
Generated from the CSD

@<TRIPOS>ATOM
     1 C5      -4.9982  -1.1677   0.8175   C.ar      1 1      0.0000
     2 C4      -4.5070  -0.0878   1.5599   C.ar      1 1      0.0000
     3 C3      -3.4061   0.6391   1.0945   C.ar      1 1      0.0000
     4 C8      -2.7849   0.2948  -0.1161   C.ar      1 1      0.0000
     5 C7      -3.2786  -0.7943  -0.8502   C.ar      1 1      0.0000
     6 C6      -4.3793  -1.5230  -0.3861   C.ar      1 1      0.0000
     7 H4      -4.9752   0.1819   2.5011   H         1 1      0.0000
     8 C9      -1.6353   1.1302  -0.6553   C.3       1 1      0.0000
     9 H7      -2.7936  -1.0836  -1.7799   H         1 1      0.0000
    10 H6      -4.7481  -2.3686  -0.9576   H         1 1      0.0000
    11 C10     -0.2954   0.6326  -0.0604   C.3       1 1      0.0000
    12 H9A     -1.5934   1.0652  -1.7482   H         1 1      0.0000
    13 C11      0.9042   1.4037  -0.5344   C.3       1 1      0.0000
    14 C12      2.1149   0.5740  -0.9940   C.3       1 1      0.0000
    15 H12A     2.8230   1.2324  -1.5168   H         1 1      0.0000
    16 C13      2.8751  -0.2232   0.0444   C.2       1 1      0.0000
    17 C14      3.7224   0.5372   1.0225   C.3       1 1      0.0000
    18 H14B     3.8706  -0.0741   1.9196   H         1 1      0.0000
    19 H14A     3.2331   1.4678   1.3238   H         1 1      0.0000
    20 N        2.7583  -1.5180   0.0770   N.pl3     1 1      0.0000
    21 HN       2.0957  -1.9104  -0.6376   H         1 1      0.0000
    22 C        3.4528  -2.4540   1.0096   C.3       1 1      0.0000
    23 H1A      3.0427  -3.4500   0.8374   H         1 1      0.0000
    24 H1C      4.5268  -2.4612   0.7981   H         1 1      0.0000
    25 H1B      3.2770  -2.1599   2.0472   H         1 1      0.0000
    26 H10A    -0.3308   0.6787   1.0401   H         1 1      0.0000
    27 H10B    -0.1482  -0.4315  -0.3048   H         1 1      0.0000
    28 H9B     -1.7760   2.1864  -0.4007   H         1 1      0.0000
    29 H5      -5.8498  -1.7345   1.1794   H         1 1      0.0000
    30 H3      -3.0198   1.4682   1.6832   H         1 1      0.0000
    31 H12B     1.7644  -0.1338  -1.7631   H         1 1      0.0000
    32 C15      5.1216   0.8631   0.3977   C.3       1 1      0.0000
    33 H15A     5.6629  -0.0509   0.1345   H         1 1      0.0000
    34 H15B     5.0244   1.4860  -0.4966   H         1 1      0.0000
    35 H15C     5.7157   1.4100   1.1358   H         1 1      0.0000
    36 O2       0.5021   2.2320  -1.6076   O.3       1 1      0.0000
    37 H21      0.0450   3.0379  -1.2504   H         1 1      0.0000
    38 H22      1.2307   2.0479   0.2806   H         1 1      0.0000
@<TRIPOS>BOND
     1     1     2   ar
     2     1     6   ar
     3     1    29    1
     4     2     3   ar
     5     2     7    1
     6     3     4   ar
     7     3    30    1
     8     4     5   ar
     9     4     8    1
    10     5     6   ar
    11     5     9    1
    12     6    10    1
    13     8    11    1
    14     8    12    1
    15     8    28    1
    16    11    13    1
    17    11    26    1
    18    11    27    1
    19    13    14    1
    20    14    15    1
    21    14    16    1
    22    14    31    1
    23    16    17    1
    24    16    20    2
    25    17    18    1
    26    17    19    1
    27    17    32    1
    28    20    21    1
    29    20    22    1
    30    22    23    1
    31    22    24    1
    32    22    25    1
    33    32    33    1
    34    32    34    1
    35    32    35    1
    36    13    36    1
    37    36    37    1
    38    13    38    1
@<TRIPOS>SUBSTRUCTURE
     1 1           1 GROUP             0 ****  ****    0  
@<TRIPOS>MOLECULE
Molecule Name_00001_00256
    38    38     1     0     0
SMALL
NO_CHARGES
****
Generated from the CSD

@<TRIPOS>ATOM
     1 C5      -4.7940   1.4707  -0.5549   C.ar      1 1      0.0000
     2 C4      -4.2981   0.5234  -1.4578   C.ar      1 1      0.0000
     3 C3      -3.2349  -0.3072  -1.0880   C.ar      1 1      0.0000
     4 C8      -2.6566  -0.2000   0.1864   C.ar      1 1      0.0000
     5 C7      -3.1545   0.7580   1.0827   C.ar      1 1      0.0000
     6 C6      -4.2174   1.5902   0.7144   C.ar      1 1      0.0000
     7 H4      -4.7331   0.4375  -2.4484   H         1 1      0.0000
     8 C9      -1.5505  -1.1518   0.6114   C.3       1 1      0.0000
     9 H7      -2.7018   0.8646   2.0660   H         1 1      0.0000
    10 H6      -4.5896   2.3332   1.4123   H         1 1      0.0000
    11 C10     -0.1756  -0.5988   0.1633   C.3       1 1      0.0000
    12 H9A     -1.5525  -1.2810   1.6994   H         1 1      0.0000
    13 C11      0.9847  -1.4771   0.5380   C.3       1 1      0.0000
    14 C12      2.1912  -0.7792   1.1882   C.3       1 1      0.0000
    15 H12A     2.8387  -1.5383   1.6495   H         1 1      0.0000
    16 C13      3.0471   0.1255   0.3276   C.2       1 1      0.0000
    17 C14      2.4931   1.4738  -0.0302   C.3       1 1      0.0000
    18 H14B     3.3230   2.1622  -0.2248   H         1 1      0.0000
    19 H14A     1.8989   1.8835   0.7916   H         1 1      0.0000
    20 N        4.2261  -0.2709  -0.0522   N.pl3     1 1      0.0000
    21 HN       4.5017  -1.2173   0.3109   H         1 1      0.0000
    22 C        5.1833   0.4774  -0.9193   C.3       1 1      0.0000
    23 H1A      6.1138  -0.0913  -0.9443   H         1 1      0.0000
    24 H1C      4.7800   0.5601  -1.9337   H         1 1      0.0000
    25 H1B      5.3729   1.4723  -0.5091   H         1 1      0.0000
    26 H10A    -0.1662  -0.4503  -0.9286   H         1 1      0.0000
    27 H10B    -0.0137   0.4011   0.5967   H         1 1      0.0000
    28 H9B     -1.7054  -2.1421   0.1693   H         1 1      0.0000
    29 H5      -5.6162   2.1180  -0.8420   H         1 1      0.0000
    30 H3      -2.8442  -1.0316  -1.7993   H         1 1      0.0000
    31 H12B     1.8159  -0.1759   2.0311   H         1 1      0.0000
    32 C15      1.6054   1.3775  -1.3174   C.3       1 1      0.0000
    33 H15A     2.0213   1.9761  -2.1337   H         1 1      0.0000
    34 H15B     1.5031   0.3418  -1.6553   H         1 1      0.0000
    35 H15C     0.6089   1.7644  -1.0851   H         1 1      0.0000
    36 O2       0.5173  -2.4726   1.4268   O.3       1 1      0.0000
    37 H21      0.7006  -3.3705   1.0442   H         1 1      0.0000
    38 H22      1.3334  -1.9737  -0.3663   H         1 1      0.0000
@<TRIPOS>BOND
     1     1     2   ar
     2     1     6   ar
     3     1    29    1
     4     2     3   ar
     5     2     7    1
     6     3     4   ar
     7     3    30    1
     8     4     5   ar
     9     4     8    1
    10     5     6   ar
    11     5     9    1
    12     6    10    1
    13     8    11    1
    14     8    12    1
    15     8    28    1
    16    11    13    1
    17    11    26    1
    18    11    27    1
    19    13    14    1
    20    14    15    1
    21    14    16    1
    22    14    31    1
    23    16    17    1
    24    16    20    2
    25    17    18    1
    26    17    19    1
    27    17    32    1
    28    20    21    1
    29    20    22    1
    30    22    23    1
    31    22    24    1
    32    22    25    1
    33    32    33    1
    34    32    34    1
    35    32    35    1
    36    13    36    1
    37    36    37    1
    38    13    38    1
@<TRIPOS>SUBSTRUCTURE
     1 1           1 GROUP             0 ****  ****    0  
@<TRIPOS>MOLECULE
Molecule Name_00001_00257
    38    38     1     0     0
SMALL
NO_CHARGES
****
Generated from the CSD

@<TRIPOS>ATOM
     1 C5      -4.7488  -0.7619   0.5846   C.ar      1 1      0.0000
     2 C4      -4.2945   0.2766   1.4055   C.ar      1 1      0.0000
     3 C3      -2.9575   0.6839   1.3444   C.ar      1 1      0.0000
     4 C8      -2.0614   0.0584   0.4636   C.ar      1 1      0.0000
     5 C7      -2.5232  -0.9873  -0.3501   C.ar      1 1      0.0000
     6 C6      -3.8599  -1.3966  -0.2899   C.ar      1 1      0.0000
     7 H4      -4.9773   0.7618   2.0955   H         1 1      0.0000
     8 C9      -0.6282   0.5507   0.3468   C.3       1 1      0.0000
     9 H7      -1.8340  -1.4935  -1.0224   H         1 1      0.0000
    10 H6      -4.2047  -2.2119  -0.9178   H         1 1      0.0000
    11 C10     -0.3171   0.9298  -1.1216   C.3       1 1      0.0000
    12 H9A     -0.4692   1.4243   0.9887   H         1 1      0.0000
    13 C11      1.0817   1.4354  -1.3359   C.3       1 1      0.0000
    14 C12      2.1923   0.3734  -1.4011   C.3       1 1      0.0000
    15 H12A     3.1145   0.8414  -1.7733   H         1 1      0.0000
    16 C13      2.5195  -0.4017  -0.1425   C.2       1 1      0.0000
    17 C14      3.6565   0.0927   0.7034   C.3       1 1      0.0000
    18 H14B     4.4626   0.4449   0.0502   H         1 1      0.0000
    19 H14A     4.0552  -0.7095   1.3310   H         1 1      0.0000
    20 N        1.8067  -1.4407   0.1795   N.pl3     1 1      0.0000
    21 HN       1.0147  -1.6428  -0.4803   H         1 1      0.0000
    22 C        2.0071  -2.3293   1.3620   C.3       1 1      0.0000
    23 H1A      1.1703  -3.0284   1.3902   H         1 1      0.0000
    24 H1C      2.9432  -2.8866   1.2542   H         1 1      0.0000
    25 H1B      2.0247  -1.7416   2.2830   H         1 1      0.0000
    26 H10A    -0.4816   0.0607  -1.7788   H         1 1      0.0000
    27 H10B    -1.0257   1.6986  -1.4691   H         1 1      0.0000
    28 H9B      0.0719  -0.2241   0.6783   H         1 1      0.0000
    29 H5      -5.7846  -1.0811   0.6339   H         1 1      0.0000
    30 H3      -2.6069   1.4818   1.9953   H         1 1      0.0000
    31 H12B     1.9121  -0.3583  -2.1767   H         1 1      0.0000
    32 C15      3.1880   1.2804   1.6113   C.3       1 1      0.0000
    33 H15A     2.8331   2.1242   1.0115   H         1 1      0.0000
    34 H15B     2.3900   0.9712   2.2931   H         1 1      0.0000
    35 H15C     4.0389   1.6212   2.2084   H         1 1      0.0000
    36 O2       1.1053   2.1749  -2.5409   O.3       1 1      0.0000
    37 H21      0.4735   2.9381  -2.4733   H         1 1      0.0000
    38 H22      1.3190   2.1174  -0.5208   H         1 1      0.0000
@<TRIPOS>BOND
     1     1     2   ar
     2     1     6   ar
     3     1    29    1
     4     2     3   ar
     5     2     7    1
     6     3     4   ar
     7     3    30    1
     8     4     5   ar
     9     4     8    1
    10     5     6   ar
    11     5     9    1
    12     6    10    1
    13     8    11    1
    14     8    12    1
    15     8    28    1
    16    11    13    1
    17    11    26    1
    18    11    27    1
    19    13    14    1
    20    14    15    1
    21    14    16    1
    22    14    31    1
    23    16    17    1
    24    16    20    2
    25    17    18    1
    26    17    19    1
    27    17    32    1
    28    20    21    1
    29    20    22    1
    30    22    23    1
    31    22    24    1
    32    22    25    1
    33    32    33    1
    34    32    34    1
    35    32    35    1
    36    13    36    1
    37    36    37    1
    38    13    38    1
@<TRIPOS>SUBSTRUCTURE
     1 1           1 GROUP             0 ****  ****    0  
@<TRIPOS>MOLECULE
Molecule Name_00001_00258
    38    38     1     0     0
SMALL
NO_CHARGES
****
Generated from the CSD

@<TRIPOS>ATOM
     1 C5      -4.5569   1.0122  -1.1395   C.ar      1 1      0.0000
     2 C4      -4.0099   1.5897   0.0119   C.ar      1 1      0.0000
     3 C3      -3.0375   0.9022   0.7460   C.ar      1 1      0.0000
     4 C8      -2.6022  -0.3682   0.3380   C.ar      1 1      0.0000
     5 C7      -3.1618  -0.9434  -0.8131   C.ar      1 1      0.0000
     6 C6      -4.1349  -0.2577  -1.5483   C.ar      1 1      0.0000
     7 H4      -4.3449   2.5683   0.3405   H         1 1      0.0000
     8 C9      -1.4943  -1.0815   1.0955   C.3       1 1      0.0000
     9 H7      -2.8475  -1.9359  -1.1285   H         1 1      0.0000
    10 H6      -4.5670  -0.7151  -2.4325   H         1 1      0.0000
    11 C10     -0.1807  -0.2675   1.0021   C.3       1 1      0.0000
    12 H9A     -1.7692  -1.2073   2.1487   H         1 1      0.0000
    13 C11      1.0438  -1.0410   1.4028   C.3       1 1      0.0000
    14 C12      2.3892  -0.3053   1.2832   C.3       1 1      0.0000
    15 H12A     3.1663  -0.8946   1.7901   H         1 1      0.0000
    16 C13      2.8870   0.0612  -0.0986   C.2       1 1      0.0000
    17 C14      3.7368   1.2916  -0.2286   C.3       1 1      0.0000
    18 H14B     4.3409   1.2154  -1.1395   H         1 1      0.0000
    19 H14A     4.4173   1.3890   0.6220   H         1 1      0.0000
    20 N        2.5916  -0.6967  -1.1133   N.pl3     1 1      0.0000
    21 HN       2.0292  -1.5491  -0.8669   H         1 1      0.0000
    22 C        2.9740  -0.4702  -2.5383   C.3       1 1      0.0000
    23 H1A      2.6629  -1.3499  -3.1033   H         1 1      0.0000
    24 H1C      2.4568   0.4131  -2.9264   H         1 1      0.0000
    25 H1B      4.0553  -0.3410  -2.6278   H         1 1      0.0000
    26 H10A    -0.0404   0.1060  -0.0251   H         1 1      0.0000
    27 H10B    -0.2506   0.6320   1.6343   H         1 1      0.0000
    28 H9B     -1.3311  -2.0834   0.6835   H         1 1      0.0000
    29 H5      -5.3138   1.5430  -1.7075   H         1 1      0.0000
    30 H3      -2.6266   1.3500   1.6483   H         1 1      0.0000
    31 H12B     2.3147   0.6275   1.8662   H         1 1      0.0000
    32 C15      2.8376   2.5708  -0.3255   C.3       1 1      0.0000
    33 H15A     2.1809   2.5307  -1.2000   H         1 1      0.0000
    34 H15B     2.2240   2.6965   0.5716   H         1 1      0.0000
    35 H15C     3.4850   3.4469  -0.4259   H         1 1      0.0000
    36 O2       0.8849  -1.4575   2.7447   O.3       1 1      0.0000
    37 H21      0.1542  -2.1278   2.7988   H         1 1      0.0000
    38 H22      1.0943  -1.9328   0.7799   H         1 1      0.0000
@<TRIPOS>BOND
     1     1     2   ar
     2     1     6   ar
     3     1    29    1
     4     2     3   ar
     5     2     7    1
     6     3     4   ar
     7     3    30    1
     8     4     5   ar
     9     4     8    1
    10     5     6   ar
    11     5     9    1
    12     6    10    1
    13     8    11    1
    14     8    12    1
    15     8    28    1
    16    11    13    1
    17    11    26    1
    18    11    27    1
    19    13    14    1
    20    14    15    1
    21    14    16    1
    22    14    31    1
    23    16    17    1
    24    16    20    2
    25    17    18    1
    26    17    19    1
    27    17    32    1
    28    20    21    1
    29    20    22    1
    30    22    23    1
    31    22    24    1
    32    22    25    1
    33    32    33    1
    34    32    34    1
    35    32    35    1
    36    13    36    1
    37    36    37    1
    38    13    38    1
@<TRIPOS>SUBSTRUCTURE
     1 1           1 GROUP             0 ****  ****    0  
@<TRIPOS>MOLECULE
Molecule Name_00001_00259
    38    38     1     0     0
SMALL
NO_CHARGES
****
Generated from the CSD

@<TRIPOS>ATOM
     1 C5      -4.9458   0.6847  -1.0307   C.ar      1 1      0.0000
     2 C4      -4.3636  -0.5014  -1.4921   C.ar      1 1      0.0000
     3 C3      -3.2508  -1.0372  -0.8350   C.ar      1 1      0.0000
     4 C8      -2.7085  -0.3940   0.2886   C.ar      1 1      0.0000
     5 C7      -3.2934   0.7991   0.7396   C.ar      1 1      0.0000
     6 C6      -4.4060   1.3368   0.0833   C.ar      1 1      0.0000
     7 H4      -4.7704  -1.0026  -2.3645   H         1 1      0.0000
     8 C9      -1.5452  -1.0158   1.0436   C.3       1 1      0.0000
     9 H7      -2.8702   1.3177   1.5970   H         1 1      0.0000
    10 H6      -4.8457   2.2644   0.4356   H         1 1      0.0000
    11 C10     -0.3067  -0.0905   0.9623   C.3       1 1      0.0000
    12 H9A     -1.8111  -1.1747   2.0946   H         1 1      0.0000
    13 C11      0.9791  -0.7589   1.3603   C.3       1 1      0.0000
    14 C12      2.2602   0.0805   1.2205   C.3       1 1      0.0000
    15 H12A     3.0035  -0.2758   1.9477   H         1 1      0.0000
    16 C13      2.9189   0.1644  -0.1399   C.2       1 1      0.0000
    17 C14      4.3944   0.4368  -0.1831   C.3       1 1      0.0000
    18 H14B     4.7978   0.0761  -1.1358   H         1 1      0.0000
    19 H14A     4.9131  -0.0875   0.6245   H         1 1      0.0000
    20 N        2.2090  -0.0214  -1.2135   N.pl3     1 1      0.0000
    21 HN       1.2000  -0.2491  -1.0305   H         1 1      0.0000
    22 C        2.6887   0.0523  -2.6251   C.3       1 1      0.0000
    23 H1A      1.8657  -0.2658  -3.2664   H         1 1      0.0000
    24 H1C      2.9642   1.0829  -2.8711   H         1 1      0.0000
    25 H1B      3.5452  -0.6101  -2.7726   H         1 1      0.0000
    26 H10A    -0.1963   0.3032  -0.0610   H         1 1      0.0000
    27 H10B    -0.4559   0.7937   1.6023   H         1 1      0.0000
    28 H9B     -1.2948  -1.9960   0.6232   H         1 1      0.0000
    29 H5      -5.8066   1.1030  -1.5418   H         1 1      0.0000
    30 H3      -2.7937  -1.9515  -1.2071   H         1 1      0.0000
    31 H12B     2.0236   1.1096   1.5375   H         1 1      0.0000
    32 C15      4.6713   1.9744  -0.0682   C.3       1 1      0.0000
    33 H15A     4.2108   2.5249  -0.8944   H         1 1      0.0000
    34 H15B     4.2968   2.3781   0.8774   H         1 1      0.0000
    35 H15C     5.7519   2.1395  -0.1096   H         1 1      0.0000
    36 O2       0.8649  -1.1710   2.7081   O.3       1 1      0.0000
    37 H21      0.1732  -1.8799   2.7800   H         1 1      0.0000
    38 H22      1.0957  -1.6511   0.7469   H         1 1      0.0000
@<TRIPOS>BOND
     1     1     2   ar
     2     1     6   ar
     3     1    29    1
     4     2     3   ar
     5     2     7    1
     6     3     4   ar
     7     3    30    1
     8     4     5   ar
     9     4     8    1
    10     5     6   ar
    11     5     9    1
    12     6    10    1
    13     8    11    1
    14     8    12    1
    15     8    28    1
    16    11    13    1
    17    11    26    1
    18    11    27    1
    19    13    14    1
    20    14    15    1
    21    14    16    1
    22    14    31    1
    23    16    17    1
    24    16    20    2
    25    17    18    1
    26    17    19    1
    27    17    32    1
    28    20    21    1
    29    20    22    1
    30    22    23    1
    31    22    24    1
    32    22    25    1
    33    32    33    1
    34    32    34    1
    35    32    35    1
    36    13    36    1
    37    36    37    1
    38    13    38    1
@<TRIPOS>SUBSTRUCTURE
     1 1           1 GROUP             0 ****  ****    0  
@<TRIPOS>MOLECULE
Molecule Name_00001_00260
    38    38     1     0     0
SMALL
NO_CHARGES
****
Generated from the CSD

@<TRIPOS>ATOM
     1 C5      -4.2259  -0.7802  -1.2260   C.ar      1 1      0.0000
     2 C4      -2.8716  -0.6569  -1.5566   C.ar      1 1      0.0000
     3 C3      -2.0091   0.0602  -0.7205   C.ar      1 1      0.0000
     4 C8      -2.4902   0.6610   0.4532   C.ar      1 1      0.0000
     5 C7      -3.8510   0.5393   0.7730   C.ar      1 1      0.0000
     6 C6      -4.7154  -0.1769  -0.0623   C.ar      1 1      0.0000
     7 H4      -2.4908  -1.1111  -2.4657   H         1 1      0.0000
     8 C9      -1.5378   1.3774   1.3965   C.3       1 1      0.0000
     9 H7      -4.2402   1.0172   1.6693   H         1 1      0.0000
    10 H6      -5.7677  -0.2581   0.1902   H         1 1      0.0000
    11 C10     -0.6605   0.3456   2.1466   C.3       1 1      0.0000
    12 H9A     -0.8924   2.0660   0.8399   H         1 1      0.0000
    13 C11      0.3949  -0.2933   1.2886   C.3       1 1      0.0000
    14 C12      1.4906   0.6374   0.7422   C.3       1 1      0.0000
    15 H12A     2.0226   1.0990   1.5860   H         1 1      0.0000
    16 C13      2.5126   0.0599  -0.2137   C.2       1 1      0.0000
    17 C14      3.9040   0.6209  -0.1671   C.3       1 1      0.0000
    18 H14B     4.6022  -0.1175  -0.5768   H         1 1      0.0000
    19 H14A     4.2048   0.8370   0.8620   H         1 1      0.0000
    20 N        2.1724  -0.9040  -1.0176   N.pl3     1 1      0.0000
    21 HN       1.1790  -1.2278  -0.9082   H         1 1      0.0000
    22 C        3.0402  -1.5658  -2.0358   C.3       1 1      0.0000
    23 H1A      2.4761  -2.4018  -2.4515   H         1 1      0.0000
    24 H1C      3.2829  -0.8577  -2.8347   H         1 1      0.0000
    25 H1B      3.9576  -1.9372  -1.5727   H         1 1      0.0000
    26 H10A    -0.1701   0.8238   3.0098   H         1 1      0.0000
    27 H10B    -1.2952  -0.4480   2.5723   H         1 1      0.0000
    28 H9B     -2.0964   1.9765   2.1239   H         1 1      0.0000
    29 H5      -4.8964  -1.3330  -1.8757   H         1 1      0.0000
    30 H3      -0.9604   0.1649  -0.9903   H         1 1      0.0000
    31 H12B     0.9930   1.4758   0.2274   H         1 1      0.0000
    32 C15      3.9957   1.9303  -1.0224   C.3       1 1      0.0000
    33 H15A     3.7534   1.7380  -2.0722   H         1 1      0.0000
    34 H15B     3.3233   2.7045  -0.6408   H         1 1      0.0000
    35 H15C     5.0208   2.3092  -0.9735   H         1 1      0.0000
    36 O2       1.0176  -1.3160   2.0409   O.3       1 1      0.0000
    37 H21      0.3395  -1.9910   2.3067   H         1 1      0.0000
    38 H22     -0.1021  -0.7591   0.4389   H         1 1      0.0000
@<TRIPOS>BOND
     1     1     2   ar
     2     1     6   ar
     3     1    29    1
     4     2     3   ar
     5     2     7    1
     6     3     4   ar
     7     3    30    1
     8     4     5   ar
     9     4     8    1
    10     5     6   ar
    11     5     9    1
    12     6    10    1
    13     8    11    1
    14     8    12    1
    15     8    28    1
    16    11    13    1
    17    11    26    1
    18    11    27    1
    19    13    14    1
    20    14    15    1
    21    14    16    1
    22    14    31    1
    23    16    17    1
    24    16    20    2
    25    17    18    1
    26    17    19    1
    27    17    32    1
    28    20    21    1
    29    20    22    1
    30    22    23    1
    31    22    24    1
    32    22    25    1
    33    32    33    1
    34    32    34    1
    35    32    35    1
    36    13    36    1
    37    36    37    1
    38    13    38    1
@<TRIPOS>SUBSTRUCTURE
     1 1           1 GROUP             0 ****  ****    0  
@<TRIPOS>MOLECULE
Molecule Name_00001_00261
    38    38     1     0     0
SMALL
NO_CHARGES
****
Generated from the CSD

@<TRIPOS>ATOM
     1 C5      -5.5977   0.0571  -0.3056   C.ar      1 1      0.0000
     2 C4      -5.0795   1.3160   0.0190   C.ar      1 1      0.0000
     3 C3      -3.7105   1.4681   0.2637   C.ar      1 1      0.0000
     4 C8      -2.8459   0.3651   0.1869   C.ar      1 1      0.0000
     5 C7      -3.3749  -0.8950  -0.1313   C.ar      1 1      0.0000
     6 C6      -4.7440  -1.0493  -0.3756   C.ar      1 1      0.0000
     7 H4      -5.7405   2.1739   0.0886   H         1 1      0.0000
     8 C9      -1.3495   0.5461   0.3816   C.3       1 1      0.0000
     9 H7      -2.7185  -1.7613  -0.1742   H         1 1      0.0000
    10 H6      -5.1440  -2.0298  -0.6130   H         1 1      0.0000
    11 C10     -0.6302  -0.8186   0.2515   C.3       1 1      0.0000
    12 H9A     -0.9469   1.2410  -0.3637   H         1 1      0.0000
    13 C11      0.8599  -0.7403   0.4297   C.3       1 1      0.0000
    14 C12      1.6341   0.0752  -0.6195   C.3       1 1      0.0000
    15 H12A     1.2898   1.1186  -0.5881   H         1 1      0.0000
    16 C13      3.1468   0.0653  -0.5637   C.2       1 1      0.0000
    17 C14      3.8291   1.2613   0.0337   C.3       1 1      0.0000
    18 H14B     3.2967   2.1684  -0.2735   H         1 1      0.0000
    19 H14A     4.8618   1.3392  -0.3180   H         1 1      0.0000
    20 N        3.8024  -0.9680  -1.0039   N.pl3     1 1      0.0000
    21 HN       3.1934  -1.7504  -1.3513   H         1 1      0.0000
    22 C        5.2853  -1.1317  -1.0492   C.3       1 1      0.0000
    23 H1A      5.4910  -2.1546  -1.3678   H         1 1      0.0000
    24 H1C      5.7150  -0.4319  -1.7731   H         1 1      0.0000
    25 H1B      5.7189  -0.9618  -0.0607   H         1 1      0.0000
    26 H10A    -1.0357  -1.5308   0.9883   H         1 1      0.0000
    27 H10B    -0.8434  -1.2629  -0.7339   H         1 1      0.0000
    28 H9B     -1.1399   0.9748   1.3678   H         1 1      0.0000
    29 H5      -6.6599  -0.0626  -0.4919   H         1 1      0.0000
    30 H3      -3.3160   2.4463   0.5299   H         1 1      0.0000
    31 H12B     1.3374  -0.2918  -1.6159   H         1 1      0.0000
    32 C15      3.8167   1.1747   1.5979   C.3       1 1      0.0000
    33 H15A     2.8458   1.4730   2.0055   H         1 1      0.0000
    34 H15B     4.0492   0.1630   1.9437   H         1 1      0.0000
    35 H15C     4.5756   1.8568   1.9922   H         1 1      0.0000
    36 O2       1.1247  -0.1872   1.7038   O.3       1 1      0.0000
    37 H21      0.7274  -0.7669   2.4054   H         1 1      0.0000
    38 H22      1.2515  -1.7564   0.4186   H         1 1      0.0000
@<TRIPOS>BOND
     1     1     2   ar
     2     1     6   ar
     3     1    29    1
     4     2     3   ar
     5     2     7    1
     6     3     4   ar
     7     3    30    1
     8     4     5   ar
     9     4     8    1
    10     5     6   ar
    11     5     9    1
    12     6    10    1
    13     8    11    1
    14     8    12    1
    15     8    28    1
    16    11    13    1
    17    11    26    1
    18    11    27    1
    19    13    14    1
    20    14    15    1
    21    14    16    1
    22    14    31    1
    23    16    17    1
    24    16    20    2
    25    17    18    1
    26    17    19    1
    27    17    32    1
    28    20    21    1
    29    20    22    1
    30    22    23    1
    31    22    24    1
    32    22    25    1
    33    32    33    1
    34    32    34    1
    35    32    35    1
    36    13    36    1
    37    36    37    1
    38    13    38    1
@<TRIPOS>SUBSTRUCTURE
     1 1           1 GROUP             0 ****  ****    0  
@<TRIPOS>MOLECULE
Molecule Name_00001_00262
    38    38     1     0     0
SMALL
NO_CHARGES
****
Generated from the CSD

@<TRIPOS>ATOM
     1 C5      -4.9011   0.8630  -0.9758   C.ar      1 1      0.0000
     2 C4      -3.6440   1.0775  -1.5521   C.ar      1 1      0.0000
     3 C3      -2.5040   0.5031  -0.9798   C.ar      1 1      0.0000
     4 C8      -2.6079  -0.2906   0.1731   C.ar      1 1      0.0000
     5 C7      -3.8712  -0.4939   0.7492   C.ar      1 1      0.0000
     6 C6      -5.0125   0.0804   0.1787   C.ar      1 1      0.0000
     7 H4      -3.5515   1.6958  -2.4392   H         1 1      0.0000
     8 C9      -1.3785  -0.9725   0.7506   C.3       1 1      0.0000
     9 H7      -3.9625  -1.0904   1.6542   H         1 1      0.0000
    10 H6      -5.9836  -0.0766   0.6370   H         1 1      0.0000
    11 C10     -0.2893   0.0810   1.0677   C.3       1 1      0.0000
    12 H9A     -1.6358  -1.5155   1.6669   H         1 1      0.0000
    13 C11      0.9699  -0.5010   1.6456   C.3       1 1      0.0000
    14 C12      2.2873   0.1891   1.2535   C.3       1 1      0.0000
    15 H12A     3.0544  -0.0500   2.0036   H         1 1      0.0000
    16 C13      2.8579  -0.0813  -0.1223   C.2       1 1      0.0000
    17 C14      2.2452   0.6441  -1.2848   C.3       1 1      0.0000
    18 H14B     1.1566   0.6641  -1.1614   H         1 1      0.0000
    19 H14A     2.4700   0.1351  -2.2264   H         1 1      0.0000
    20 N        3.8593  -0.9000  -0.2564   N.pl3     1 1      0.0000
    21 HN       4.2155  -1.2991   0.6477   H         1 1      0.0000
    22 C        4.5218  -1.2989  -1.5331   C.3       1 1      0.0000
    23 H1A      5.3910  -1.9050  -1.2741   H         1 1      0.0000
    24 H1C      3.8318  -1.8933  -2.1405   H         1 1      0.0000
    25 H1B      4.8441  -0.4149  -2.0888   H         1 1      0.0000
    26 H10A    -0.0308   0.6429   0.1556   H         1 1      0.0000
    27 H10B    -0.6852   0.8304   1.7716   H         1 1      0.0000
    28 H9B     -0.9788  -1.7068   0.0427   H         1 1      0.0000
    29 H5      -5.7855   1.3111  -1.4166   H         1 1      0.0000
    30 H3      -1.5278   0.6854  -1.4239   H         1 1      0.0000
    31 H12B     2.1348   1.2776   1.3404   H         1 1      0.0000
    32 C15      2.7724   2.1179  -1.3505   C.3       1 1      0.0000
    33 H15A     2.5153   2.6736  -0.4434   H         1 1      0.0000
    34 H15B     3.8575   2.1481  -1.4877   H         1 1      0.0000
    35 H15C     2.3031   2.6198  -2.2017   H         1 1      0.0000
    36 O2       0.8613  -0.4793   3.0552   O.3       1 1      0.0000
    37 H21      0.0763  -1.0192   3.3351   H         1 1      0.0000
    38 H22      1.0317  -1.5419   1.3313   H         1 1      0.0000
@<TRIPOS>BOND
     1     1     2   ar
     2     1     6   ar
     3     1    29    1
     4     2     3   ar
     5     2     7    1
     6     3     4   ar
     7     3    30    1
     8     4     5   ar
     9     4     8    1
    10     5     6   ar
    11     5     9    1
    12     6    10    1
    13     8    11    1
    14     8    12    1
    15     8    28    1
    16    11    13    1
    17    11    26    1
    18    11    27    1
    19    13    14    1
    20    14    15    1
    21    14    16    1
    22    14    31    1
    23    16    17    1
    24    16    20    2
    25    17    18    1
    26    17    19    1
    27    17    32    1
    28    20    21    1
    29    20    22    1
    30    22    23    1
    31    22    24    1
    32    22    25    1
    33    32    33    1
    34    32    34    1
    35    32    35    1
    36    13    36    1
    37    36    37    1
    38    13    38    1
@<TRIPOS>SUBSTRUCTURE
     1 1           1 GROUP             0 ****  ****    0  
@<TRIPOS>MOLECULE
Molecule Name_00001_00263
    38    38     1     0     0
SMALL
NO_CHARGES
****
Generated from the CSD

@<TRIPOS>ATOM
     1 C5      -4.7869   0.3603   1.2460   C.ar      1 1      0.0000
     2 C4      -3.5353   0.4932   1.8580   C.ar      1 1      0.0000
     3 C3      -2.3703   0.4600   1.0843   C.ar      1 1      0.0000
     4 C8      -2.4434   0.2934  -0.3075   C.ar      1 1      0.0000
     5 C7      -3.7018   0.1527  -0.9120   C.ar      1 1      0.0000
     6 C6      -4.8682   0.1851  -0.1398   C.ar      1 1      0.0000
     7 H4      -3.4672   0.6148   2.9343   H         1 1      0.0000
     8 C9      -1.1814   0.3303  -1.1536   C.3       1 1      0.0000
     9 H7      -3.7709   0.0030  -1.9872   H         1 1      0.0000
    10 H6      -5.8360   0.0673  -0.6165   H         1 1      0.0000
    11 C10     -0.1810  -0.7424  -0.6584   C.3       1 1      0.0000
    12 H9A     -1.4202   0.1451  -2.2068   H         1 1      0.0000
    13 C11      1.1033  -0.7823  -1.4377   C.3       1 1      0.0000
    14 C12      2.3668  -1.1821  -0.6573   C.3       1 1      0.0000
    15 H12A     3.1777  -1.3894  -1.3698   H         1 1      0.0000
    16 C13      2.8870  -0.2337   0.4018   C.2       1 1      0.0000
    17 C14      3.5326   1.0398  -0.0610   C.3       1 1      0.0000
    18 H14B     4.1311   0.8339  -0.9554   H         1 1      0.0000
    19 H14A     4.1991   1.4425   0.7071   H         1 1      0.0000
    20 N        2.7428  -0.5291   1.6600   N.pl3     1 1      0.0000
    21 HN       2.2314  -1.4295   1.8368   H         1 1      0.0000
    22 C        3.2175   0.2733   2.8257   C.3       1 1      0.0000
    23 H1A      2.8328  -0.2036   3.7283   H         1 1      0.0000
    24 H1C      4.3119   0.2767   2.8542   H         1 1      0.0000
    25 H1B      2.8410   1.2972   2.7635   H         1 1      0.0000
    26 H10A     0.0574  -0.5742   0.4043   H         1 1      0.0000
    27 H10B    -0.6483  -1.7393  -0.6999   H         1 1      0.0000
    28 H9B     -0.7114   1.3183  -1.0990   H         1 1      0.0000
    29 H5      -5.6909   0.3823   1.8456   H         1 1      0.0000
    30 H3      -1.3997   0.5491   1.5674   H         1 1      0.0000
    31 H12B     2.1663  -2.1486  -0.1661   H         1 1      0.0000
    32 C15      2.4437   2.1080  -0.4179   C.3       1 1      0.0000
    33 H15A     2.3443   2.2289  -1.5011   H         1 1      0.0000
    34 H15B     1.4683   1.8385  -0.0016   H         1 1      0.0000
    35 H15C     2.7453   3.0704   0.0057   H         1 1      0.0000
    36 O2       0.9414  -1.6877  -2.5117   O.3       1 1      0.0000
    37 H21      0.1983  -1.3805  -3.0944   H         1 1      0.0000
    38 H22      1.2698   0.2084  -1.8581   H         1 1      0.0000
@<TRIPOS>BOND
     1     1     2   ar
     2     1     6   ar
     3     1    29    1
     4     2     3   ar
     5     2     7    1
     6     3     4   ar
     7     3    30    1
     8     4     5   ar
     9     4     8    1
    10     5     6   ar
    11     5     9    1
    12     6    10    1
    13     8    11    1
    14     8    12    1
    15     8    28    1
    16    11    13    1
    17    11    26    1
    18    11    27    1
    19    13    14    1
    20    14    15    1
    21    14    16    1
    22    14    31    1
    23    16    17    1
    24    16    20    2
    25    17    18    1
    26    17    19    1
    27    17    32    1
    28    20    21    1
    29    20    22    1
    30    22    23    1
    31    22    24    1
    32    22    25    1
    33    32    33    1
    34    32    34    1
    35    32    35    1
    36    13    36    1
    37    36    37    1
    38    13    38    1
@<TRIPOS>SUBSTRUCTURE
     1 1           1 GROUP             0 ****  ****    0  
@<TRIPOS>MOLECULE
Molecule Name_00001_00264
    38    38     1     0     0
SMALL
NO_CHARGES
****
Generated from the CSD

@<TRIPOS>ATOM
     1 C5      -4.9700   0.1575   1.2265   C.ar      1 1      0.0000
     2 C4      -3.7320   0.3818   1.8395   C.ar      1 1      0.0000
     3 C3      -2.5643   0.4106   1.0697   C.ar      1 1      0.0000
     4 C8      -2.6211   0.2156  -0.3191   C.ar      1 1      0.0000
     5 C7      -3.8655  -0.0168  -0.9246   C.ar      1 1      0.0000
     6 C6      -5.0345  -0.0467  -0.1562   C.ar      1 1      0.0000
     7 H4      -3.6760   0.5262   2.9137   H         1 1      0.0000
     8 C9      -1.3610   0.3194  -1.1624   C.3       1 1      0.0000
     9 H7      -3.9206  -0.1893  -1.9971   H         1 1      0.0000
    10 H6      -5.9908  -0.2352  -0.6334   H         1 1      0.0000
    11 C10     -0.2951  -0.6775  -0.6457   C.3       1 1      0.0000
    12 H9A     -1.5832   0.1008  -2.2128   H         1 1      0.0000
    13 C11      0.9920  -0.6477  -1.4207   C.3       1 1      0.0000
    14 C12      2.2758  -0.9512  -0.6299   C.3       1 1      0.0000
    15 H12A     3.1011  -1.1179  -1.3365   H         1 1      0.0000
    16 C13      2.7294   0.0472   0.4137   C.2       1 1      0.0000
    17 C14      3.2931   1.3516  -0.0697   C.3       1 1      0.0000
    18 H14B     3.1950   2.1007   0.7240   H         1 1      0.0000
    19 H14A     2.7475   1.7132  -0.9459   H         1 1      0.0000
    20 N        2.5998  -0.2351   1.6765   N.pl3     1 1      0.0000
    21 HN       2.1471  -1.1635   1.8677   H         1 1      0.0000
    22 C        3.0171   0.6165   2.8292   C.3       1 1      0.0000
    23 H1A      2.6607   0.1315   3.7390   H         1 1      0.0000
    24 H1C      4.1088   0.6913   2.8606   H         1 1      0.0000
    25 H1B      2.5753   1.6126   2.7480   H         1 1      0.0000
    26 H10A    -0.0722  -0.4757   0.4145   H         1 1      0.0000
    27 H10B    -0.6967  -1.7031  -0.6709   H         1 1      0.0000
    28 H9B     -0.9561   1.3366  -1.1239   H         1 1      0.0000
    29 H5      -5.8759   0.1313   1.8232   H         1 1      0.0000
    30 H3      -1.6034   0.5709   1.5538   H         1 1      0.0000
    31 H12B     2.1364  -1.9199  -0.1224   H         1 1      0.0000
    32 C15      4.8097   1.1935  -0.4290   C.3       1 1      0.0000
    33 H15A     5.3954   0.8848   0.4424   H         1 1      0.0000
    34 H15B     4.9562   0.4628  -1.2301   H         1 1      0.0000
    35 H15C     5.1912   2.1604  -0.7704   H         1 1      0.0000
    36 O2       0.8932  -1.5801  -2.4790   O.3       1 1      0.0000
    37 H21      0.1341  -1.3319  -3.0691   H         1 1      0.0000
    38 H22      1.0957   0.3443  -1.8580   H         1 1      0.0000
@<TRIPOS>BOND
     1     1     2   ar
     2     1     6   ar
     3     1    29    1
     4     2     3   ar
     5     2     7    1
     6     3     4   ar
     7     3    30    1
     8     4     5   ar
     9     4     8    1
    10     5     6   ar
    11     5     9    1
    12     6    10    1
    13     8    11    1
    14     8    12    1
    15     8    28    1
    16    11    13    1
    17    11    26    1
    18    11    27    1
    19    13    14    1
    20    14    15    1
    21    14    16    1
    22    14    31    1
    23    16    17    1
    24    16    20    2
    25    17    18    1
    26    17    19    1
    27    17    32    1
    28    20    21    1
    29    20    22    1
    30    22    23    1
    31    22    24    1
    32    22    25    1
    33    32    33    1
    34    32    34    1
    35    32    35    1
    36    13    36    1
    37    36    37    1
    38    13    38    1
@<TRIPOS>SUBSTRUCTURE
     1 1           1 GROUP             0 ****  ****    0  
@<TRIPOS>MOLECULE
Molecule Name_00001_00265
    38    38     1     0     0
SMALL
NO_CHARGES
****
Generated from the CSD

@<TRIPOS>ATOM
     1 C5      -5.5875   0.3580   0.1902   C.ar      1 1      0.0000
     2 C4      -5.0064  -0.8457  -0.2244   C.ar      1 1      0.0000
     3 C3      -3.6331  -0.9075  -0.4844   C.ar      1 1      0.0000
     4 C8      -2.8271   0.2316  -0.3331   C.ar      1 1      0.0000
     5 C7      -3.4193   1.4364   0.0751   C.ar      1 1      0.0000
     6 C6      -4.7927   1.5004   0.3349   C.ar      1 1      0.0000
     7 H4      -5.6218  -1.7305  -0.3519   H         1 1      0.0000
     8 C9      -1.3248   0.1442  -0.5459   C.3       1 1      0.0000
     9 H7      -2.8090   2.3311   0.1767   H         1 1      0.0000
    10 H6      -5.2419   2.4392   0.6424   H         1 1      0.0000
    11 C10     -0.6973  -0.8108   0.4987   C.3       1 1      0.0000
    12 H9A     -1.1007  -0.2226  -1.5537   H         1 1      0.0000
    13 C11      0.7921  -0.9619   0.3673   C.3       1 1      0.0000
    14 C12      1.5826   0.3113   0.0214   C.3       1 1      0.0000
    15 H12A     1.4338   1.0533   0.8186   H         1 1      0.0000
    16 C13      3.0669   0.1841  -0.2474   C.2       1 1      0.0000
    17 C14      3.8280   1.4399  -0.5582   C.3       1 1      0.0000
    18 H14B     3.2091   2.0873  -1.1894   H         1 1      0.0000
    19 H14A     4.7487   1.2148  -1.1039   H         1 1      0.0000
    20 N        3.6376  -0.9825  -0.1802   N.pl3     1 1      0.0000
    21 HN       2.9916  -1.7646   0.0927   H         1 1      0.0000
    22 C        5.0748  -1.2899  -0.4410   C.3       1 1      0.0000
    23 H1A      5.2357  -2.3382  -0.1858   H         1 1      0.0000
    24 H1C      5.3022  -1.1343  -1.5005   H         1 1      0.0000
    25 H1B      5.7187  -0.6595   0.1771   H         1 1      0.0000
    26 H10A    -0.9267  -0.4590   1.5175   H         1 1      0.0000
    27 H10B    -1.1598  -1.8078   0.4215   H         1 1      0.0000
    28 H9B     -0.8659   1.1348  -0.4544   H         1 1      0.0000
    29 H5      -6.6531   0.4079   0.3885   H         1 1      0.0000
    30 H3      -3.1897  -1.8423  -0.8205   H         1 1      0.0000
    31 H12B     1.1215   0.7599  -0.8739   H         1 1      0.0000
    32 C15      4.1791   2.2085   0.7610   C.3       1 1      0.0000
    33 H15A     3.2752   2.4980   1.3059   H         1 1      0.0000
    34 H15B     4.8102   1.6041   1.4195   H         1 1      0.0000
    35 H15C     4.7258   3.1195   0.5004   H         1 1      0.0000
    36 O2       1.2937  -1.4773   1.5847   O.3       1 1      0.0000
    37 H21      0.8763  -2.3596   1.7676   H         1 1      0.0000
    38 H22      0.9858  -1.6975  -0.4120   H         1 1      0.0000
@<TRIPOS>BOND
     1     1     2   ar
     2     1     6   ar
     3     1    29    1
     4     2     3   ar
     5     2     7    1
     6     3     4   ar
     7     3    30    1
     8     4     5   ar
     9     4     8    1
    10     5     6   ar
    11     5     9    1
    12     6    10    1
    13     8    11    1
    14     8    12    1
    15     8    28    1
    16    11    13    1
    17    11    26    1
    18    11    27    1
    19    13    14    1
    20    14    15    1
    21    14    16    1
    22    14    31    1
    23    16    17    1
    24    16    20    2
    25    17    18    1
    26    17    19    1
    27    17    32    1
    28    20    21    1
    29    20    22    1
    30    22    23    1
    31    22    24    1
    32    22    25    1
    33    32    33    1
    34    32    34    1
    35    32    35    1
    36    13    36    1
    37    36    37    1
    38    13    38    1
@<TRIPOS>SUBSTRUCTURE
     1 1           1 GROUP             0 ****  ****    0  
@<TRIPOS>MOLECULE
Molecule Name_00001_00266
    38    38     1     0     0
SMALL
NO_CHARGES
****
Generated from the CSD

@<TRIPOS>ATOM
     1 C5      -5.5685   0.3397   0.1159   C.ar      1 1      0.0000
     2 C4      -4.9500  -0.6190  -0.6945   C.ar      1 1      0.0000
     3 C3      -3.5614  -0.6024  -0.8638   C.ar      1 1      0.0000
     4 C8      -2.7772   0.3714  -0.2260   C.ar      1 1      0.0000
     5 C7      -3.4063   1.3339   0.5782   C.ar      1 1      0.0000
     6 C6      -4.7950   1.3194   0.7483   C.ar      1 1      0.0000
     7 H4      -5.5479  -1.3717  -1.1983   H         1 1      0.0000
     8 C9      -1.2629   0.3435  -0.3532   C.3       1 1      0.0000
     9 H7      -2.8118   2.1059   1.0618   H         1 1      0.0000
    10 H6      -5.2723   2.0732   1.3660   H         1 1      0.0000
    11 C10     -0.7031  -0.9553   0.2766   C.3       1 1      0.0000
    12 H9A     -0.9654   0.3936  -1.4065   H         1 1      0.0000
    13 C11      0.7929  -1.0733   0.1985   C.3       1 1      0.0000
    14 C12      1.5957   0.2178   0.4309   C.3       1 1      0.0000
    15 H12A     1.3852   0.5938   1.4421   H         1 1      0.0000
    16 C13      3.0963   0.1754   0.2355   C.2       1 1      0.0000
    17 C14      3.8674   1.4375   0.4914   C.3       1 1      0.0000
    18 H14B     4.9096   1.1822   0.7128   H         1 1      0.0000
    19 H14A     3.4608   1.9771   1.3515   H         1 1      0.0000
    20 N        3.6701  -0.9366  -0.1186   N.pl3     1 1      0.0000
    21 HN       3.0127  -1.7500  -0.2169   H         1 1      0.0000
    22 C        5.1245  -1.1471  -0.3801   C.3       1 1      0.0000
    23 H1A      5.2754  -2.2150  -0.5435   H         1 1      0.0000
    24 H1C      5.4249  -0.5959  -1.2770   H         1 1      0.0000
    25 H1B      5.7181  -0.8202   0.4771   H         1 1      0.0000
    26 H10A    -1.0067  -1.0234   1.3337   H         1 1      0.0000
    27 H10B    -1.1510  -1.8340  -0.2144   H         1 1      0.0000
    28 H9B     -0.8196   1.2109   0.1482   H         1 1      0.0000
    29 H5      -6.6458   0.3300   0.2450   H         1 1      0.0000
    30 H3      -3.0880  -1.3413  -1.5066   H         1 1      0.0000
    31 H12B     1.1954   0.9888  -0.2478   H         1 1      0.0000
    32 C15      3.8327   2.3660  -0.7699   C.3       1 1      0.0000
    33 H15A     4.2834   1.8754  -1.6381   H         1 1      0.0000
    34 H15B     2.8091   2.6594  -1.0218   H         1 1      0.0000
    35 H15C     4.4075   3.2714  -0.5540   H         1 1      0.0000
    36 O2       1.2115  -2.0321   1.1498   O.3       1 1      0.0000
    37 H21      0.7893  -2.9074   0.9454   H         1 1      0.0000
    38 H22      1.0470  -1.4512  -0.7907   H         1 1      0.0000
@<TRIPOS>BOND
     1     1     2   ar
     2     1     6   ar
     3     1    29    1
     4     2     3   ar
     5     2     7    1
     6     3     4   ar
     7     3    30    1
     8     4     5   ar
     9     4     8    1
    10     5     6   ar
    11     5     9    1
    12     6    10    1
    13     8    11    1
    14     8    12    1
    15     8    28    1
    16    11    13    1
    17    11    26    1
    18    11    27    1
    19    13    14    1
    20    14    15    1
    21    14    16    1
    22    14    31    1
    23    16    17    1
    24    16    20    2
    25    17    18    1
    26    17    19    1
    27    17    32    1
    28    20    21    1
    29    20    22    1
    30    22    23    1
    31    22    24    1
    32    22    25    1
    33    32    33    1
    34    32    34    1
    35    32    35    1
    36    13    36    1
    37    36    37    1
    38    13    38    1
@<TRIPOS>SUBSTRUCTURE
     1 1           1 GROUP             0 ****  ****    0  
@<TRIPOS>MOLECULE
Molecule Name_00001_00267
    38    38     1     0     0
SMALL
NO_CHARGES
****
Generated from the CSD

@<TRIPOS>ATOM
     1 C5      -4.3179  -1.4239   0.5606   C.ar      1 1      0.0000
     2 C4      -3.3587  -1.0775   1.5190   C.ar      1 1      0.0000
     3 C3      -2.4615  -0.0341   1.2667   C.ar      1 1      0.0000
     4 C8      -2.5132   0.6730   0.0554   C.ar      1 1      0.0000
     5 C7      -3.4727   0.3138  -0.9034   C.ar      1 1      0.0000
     6 C6      -4.3704  -0.7299  -0.6531   C.ar      1 1      0.0000
     7 H4      -3.3052  -1.6229   2.4558   H         1 1      0.0000
     8 C9      -1.5857   1.8525  -0.1866   C.3       1 1      0.0000
     9 H7      -3.5100   0.8409  -1.8542   H         1 1      0.0000
    10 H6      -5.1034  -1.0048  -1.4048   H         1 1      0.0000
    11 C10     -0.6415   1.5479  -1.3751   C.3       1 1      0.0000
    12 H9A     -2.1642   2.7569  -0.4053   H         1 1      0.0000
    13 C11      0.4214   0.5326  -1.0627   C.3       1 1      0.0000
    14 C12      1.4234   0.9067   0.0426   C.3       1 1      0.0000
    15 H12A     0.8792   1.0472   0.9872   H         1 1      0.0000
    16 C13      2.5940  -0.0195   0.2942   C.2       1 1      0.0000
    17 C14      3.7130  -0.0144  -0.7062   C.3       1 1      0.0000
    18 H14B     3.2927   0.0781  -1.7138   H         1 1      0.0000
    19 H14A     4.2827  -0.9470  -0.6612   H         1 1      0.0000
    20 N        2.6112  -0.7633   1.3609   N.pl3     1 1      0.0000
    21 HN       1.7843  -0.6291   1.9947   H         1 1      0.0000
    22 C        3.6662  -1.7460   1.7473   C.3       1 1      0.0000
    23 H1A      3.4239  -2.1083   2.7473   H         1 1      0.0000
    24 H1C      3.6666  -2.5866   1.0460   H         1 1      0.0000
    25 H1B      4.6484  -1.2672   1.7592   H         1 1      0.0000
    26 H10A    -1.2253   1.1915  -2.2391   H         1 1      0.0000
    27 H10B    -0.1528   2.4754  -1.7137   H         1 1      0.0000
    28 H9B     -0.9884   2.0609   0.7079   H         1 1      0.0000
    29 H5      -5.0117  -2.2354   0.7538   H         1 1      0.0000
    30 H3      -1.7088   0.2209   2.0094   H         1 1      0.0000
    31 H12B     1.8341   1.9009  -0.1991   H         1 1      0.0000
    32 C15      4.6737   1.1957  -0.4475   C.3       1 1      0.0000
    33 H15A     4.1458   2.1500  -0.5395   H         1 1      0.0000
    34 H15B     5.1297   1.1386   0.5455   H         1 1      0.0000
    35 H15C     5.4720   1.1749  -1.1952   H         1 1      0.0000
    36 O2      -0.2147  -0.6749  -0.6932   O.3       1 1      0.0000
    37 H21     -0.7809  -0.9940  -1.4440   H         1 1      0.0000
    38 H22      0.9852   0.3474  -1.9758   H         1 1      0.0000
@<TRIPOS>BOND
     1     1     2   ar
     2     1     6   ar
     3     1    29    1
     4     2     3   ar
     5     2     7    1
     6     3     4   ar
     7     3    30    1
     8     4     5   ar
     9     4     8    1
    10     5     6   ar
    11     5     9    1
    12     6    10    1
    13     8    11    1
    14     8    12    1
    15     8    28    1
    16    11    13    1
    17    11    26    1
    18    11    27    1
    19    13    14    1
    20    14    15    1
    21    14    16    1
    22    14    31    1
    23    16    17    1
    24    16    20    2
    25    17    18    1
    26    17    19    1
    27    17    32    1
    28    20    21    1
    29    20    22    1
    30    22    23    1
    31    22    24    1
    32    22    25    1
    33    32    33    1
    34    32    34    1
    35    32    35    1
    36    13    36    1
    37    36    37    1
    38    13    38    1
@<TRIPOS>SUBSTRUCTURE
     1 1           1 GROUP             0 ****  ****    0  
@<TRIPOS>MOLECULE
Molecule Name_00001_00268
    38    38     1     0     0
SMALL
NO_CHARGES
****
Generated from the CSD

@<TRIPOS>ATOM
     1 C5      -4.2571   0.4703  -1.2745   C.ar      1 1      0.0000
     2 C4      -3.3484  -0.5542  -1.5627   C.ar      1 1      0.0000
     3 C3      -2.4432  -0.9828  -0.5859   C.ar      1 1      0.0000
     4 C8      -2.4363  -0.3926   0.6875   C.ar      1 1      0.0000
     5 C7      -3.3454   0.6396   0.9655   C.ar      1 1      0.0000
     6 C6      -4.2510   1.0701  -0.0104   C.ar      1 1      0.0000
     7 H4      -3.3401  -1.0120  -2.5467   H         1 1      0.0000
     8 C9      -1.5018  -0.9089   1.7692   C.3       1 1      0.0000
     9 H7      -3.3367   1.1187   1.9420   H         1 1      0.0000
    10 H6      -4.9444   1.8746   0.2125   H         1 1      0.0000
    11 C10     -0.4981   0.1983   2.1737   C.3       1 1      0.0000
    12 H9A     -2.0716  -1.2219   2.6512   H         1 1      0.0000
    13 C11      0.5512   0.4771   1.1347   C.3       1 1      0.0000
    14 C12      1.4952  -0.6855   0.7844   C.3       1 1      0.0000
    15 H12A     0.9039  -1.5164   0.3743   H         1 1      0.0000
    16 C13      2.6549  -0.4125  -0.1496   C.2       1 1      0.0000
    17 C14      3.8226   0.3560   0.3970   C.3       1 1      0.0000
    18 H14B     4.7111   0.1340  -0.2046   H         1 1      0.0000
    19 H14A     4.0325   0.0666   1.4306   H         1 1      0.0000
    20 N        2.6210  -0.8620  -1.3694   N.pl3     1 1      0.0000
    21 HN       1.7630  -1.4224  -1.5999   H         1 1      0.0000
    22 C        3.6586  -0.6622  -2.4237   C.3       1 1      0.0000
    23 H1A      3.3677  -1.2639  -3.2859   H         1 1      0.0000
    24 H1C      3.6970   0.3929  -2.7129   H         1 1      0.0000
    25 H1B      4.6373  -0.9880  -2.0632   H         1 1      0.0000
    26 H10A    -1.0366   1.1352   2.3900   H         1 1      0.0000
    27 H10B     0.0038  -0.0756   3.1154   H         1 1      0.0000
    28 H9B     -0.9509  -1.7865   1.4137   H         1 1      0.0000
    29 H5      -4.9571   0.8060  -2.0326   H         1 1      0.0000
    30 H3      -1.7295  -1.7695  -0.8206   H         1 1      0.0000
    31 H12B     1.9143  -1.0736   1.7274   H         1 1      0.0000
    32 C15      3.5429   1.8961   0.3338   C.3       1 1      0.0000
    33 H15A     3.0857   2.1791  -0.6194   H         1 1      0.0000
    34 H15B     2.8872   2.2167   1.1490   H         1 1      0.0000
    35 H15C     4.4939   2.4287   0.4266   H         1 1      0.0000
    36 O2      -0.0986   0.8921  -0.0505   O.3       1 1      0.0000
    37 H21     -0.6253   1.7140   0.1312   H         1 1      0.0000
    38 H22      1.1606   1.3069   1.4897   H         1 1      0.0000
@<TRIPOS>BOND
     1     1     2   ar
     2     1     6   ar
     3     1    29    1
     4     2     3   ar
     5     2     7    1
     6     3     4   ar
     7     3    30    1
     8     4     5   ar
     9     4     8    1
    10     5     6   ar
    11     5     9    1
    12     6    10    1
    13     8    11    1
    14     8    12    1
    15     8    28    1
    16    11    13    1
    17    11    26    1
    18    11    27    1
    19    13    14    1
    20    14    15    1
    21    14    16    1
    22    14    31    1
    23    16    17    1
    24    16    20    2
    25    17    18    1
    26    17    19    1
    27    17    32    1
    28    20    21    1
    29    20    22    1
    30    22    23    1
    31    22    24    1
    32    22    25    1
    33    32    33    1
    34    32    34    1
    35    32    35    1
    36    13    36    1
    37    36    37    1
    38    13    38    1
@<TRIPOS>SUBSTRUCTURE
     1 1           1 GROUP             0 ****  ****    0  
@<TRIPOS>MOLECULE
Molecule Name_00001_00269
    38    38     1     0     0
SMALL
NO_CHARGES
****
Generated from the CSD

@<TRIPOS>ATOM
     1 C5      -4.1628   1.6857   0.2129   C.ar      1 1      0.0000
     2 C4      -3.1772   1.7509  -0.7785   C.ar      1 1      0.0000
     3 C3      -2.3362   0.6557  -1.0032   C.ar      1 1      0.0000
     4 C8      -2.4709  -0.5147  -0.2402   C.ar      1 1      0.0000
     5 C7      -3.4563  -0.5686   0.7573   C.ar      1 1      0.0000
     6 C6      -4.2980   0.5259   0.9839   C.ar      1 1      0.0000
     7 H4      -3.0596   2.6539  -1.3689   H         1 1      0.0000
     8 C9      -1.6048  -1.7284  -0.5346   C.3       1 1      0.0000
     9 H7      -3.5576  -1.4625   1.3688   H         1 1      0.0000
    10 H6      -5.0516   0.4766   1.7632   H         1 1      0.0000
    11 C10     -0.7024  -2.0424   0.6836   C.3       1 1      0.0000
    12 H9A     -2.2295  -2.6004  -0.7578   H         1 1      0.0000
    13 C11      0.4146  -1.0571   0.8831   C.3       1 1      0.0000
    14 C12      1.4483  -0.9535  -0.2510   C.3       1 1      0.0000
    15 H12A     0.9448  -0.6065  -1.1644   H         1 1      0.0000
    16 C13      2.6786  -0.1007  -0.0257   C.2       1 1      0.0000
    17 C14      2.5044   1.3901  -0.0407   C.3       1 1      0.0000
    18 H14B     3.3288   1.8529   0.5130   H         1 1      0.0000
    19 H14A     1.5670   1.6796   0.4428   H         1 1      0.0000
    20 N        3.8271  -0.6697   0.1943   N.pl3     1 1      0.0000
    21 HN       3.7911  -1.7192   0.2227   H         1 1      0.0000
    22 C        5.1364   0.0146   0.4074   C.3       1 1      0.0000
    23 H1A      5.8653  -0.7517   0.6748   H         1 1      0.0000
    24 H1C      5.4519   0.5102  -0.5163   H         1 1      0.0000
    25 H1B      5.0587   0.7446   1.2168   H         1 1      0.0000
    26 H10A    -1.3087  -2.0778   1.6031   H         1 1      0.0000
    27 H10B    -0.2682  -3.0495   0.5796   H         1 1      0.0000
    28 H9B     -0.9775  -1.5480  -1.4146   H         1 1      0.0000
    29 H5      -4.8132   2.5359   0.3904   H         1 1      0.0000
    30 H3      -1.5624   0.7177  -1.7652   H         1 1      0.0000
    31 H12B     1.7919  -1.9742  -0.4864   H         1 1      0.0000
    32 C15      2.5198   1.9287  -1.5117   C.3       1 1      0.0000
    33 H15A     3.4686   1.7033  -2.0084   H         1 1      0.0000
    34 H15B     1.7025   1.5030  -2.1015   H         1 1      0.0000
    35 H15C     2.3979   3.0156  -1.4878   H         1 1      0.0000
    36 O2      -0.1539   0.2222   1.0821   O.3       1 1      0.0000
    37 H21     -0.7391   0.2032   1.8841   H         1 1      0.0000
    38 H22      0.9444  -1.3326   1.7938   H         1 1      0.0000
@<TRIPOS>BOND
     1     1     2   ar
     2     1     6   ar
     3     1    29    1
     4     2     3   ar
     5     2     7    1
     6     3     4   ar
     7     3    30    1
     8     4     5   ar
     9     4     8    1
    10     5     6   ar
    11     5     9    1
    12     6    10    1
    13     8    11    1
    14     8    12    1
    15     8    28    1
    16    11    13    1
    17    11    26    1
    18    11    27    1
    19    13    14    1
    20    14    15    1
    21    14    16    1
    22    14    31    1
    23    16    17    1
    24    16    20    2
    25    17    18    1
    26    17    19    1
    27    17    32    1
    28    20    21    1
    29    20    22    1
    30    22    23    1
    31    22    24    1
    32    22    25    1
    33    32    33    1
    34    32    34    1
    35    32    35    1
    36    13    36    1
    37    36    37    1
    38    13    38    1
@<TRIPOS>SUBSTRUCTURE
     1 1           1 GROUP             0 ****  ****    0  
@<TRIPOS>MOLECULE
Molecule Name_00001_00270
    38    38     1     0     0
SMALL
NO_CHARGES
****
Generated from the CSD

@<TRIPOS>ATOM
     1 C5      -5.6775   0.6488   0.1607   C.ar      1 1      0.0000
     2 C4      -5.4648  -0.4892  -0.6256   C.ar      1 1      0.0000
     3 C3      -4.1652  -0.9628  -0.8352   C.ar      1 1      0.0000
     4 C8      -3.0658  -0.3049  -0.2622   C.ar      1 1      0.0000
     5 C7      -3.2873   0.8401   0.5181   C.ar      1 1      0.0000
     6 C6      -4.5863   1.3158   0.7283   C.ar      1 1      0.0000
     7 H4      -6.3073  -1.0009  -1.0795   H         1 1      0.0000
     8 C9      -1.6622  -0.8628  -0.4313   C.3       1 1      0.0000
     9 H7      -2.4421   1.3706   0.9511   H         1 1      0.0000
    10 H6      -4.7458   2.2069   1.3268   H         1 1      0.0000
    11 C10     -0.6400   0.0490   0.2903   C.3       1 1      0.0000
    12 H9A     -1.5996  -1.8758  -0.0184   H         1 1      0.0000
    13 C11      0.7820  -0.4237   0.1782   C.3       1 1      0.0000
    14 C12      1.8665   0.6664   0.1464   C.3       1 1      0.0000
    15 H12A     1.8322   1.2338   1.0871   H         1 1      0.0000
    16 C13      3.2982   0.2477  -0.1117   C.2       1 1      0.0000
    17 C14      4.1985   1.2331  -0.7983   C.3       1 1      0.0000
    18 H14B     3.6307   1.7562  -1.5758   H         1 1      0.0000
    19 H14A     5.0409   0.7261  -1.2774   H         1 1      0.0000
    20 N        3.7097  -0.9217   0.2812   N.pl3     1 1      0.0000
    21 HN       2.9844  -1.4870   0.7890   H         1 1      0.0000
    22 C        5.0711  -1.5016   0.0850   C.3       1 1      0.0000
    23 H1A      5.1064  -2.4439   0.6333   H         1 1      0.0000
    24 H1C      5.2443  -1.6930  -0.9789   H         1 1      0.0000
    25 H1B      5.8349  -0.8232   0.4730   H         1 1      0.0000
    26 H10A    -0.7022   1.0747  -0.1079   H         1 1      0.0000
    27 H10B    -0.8994   0.1326   1.3578   H         1 1      0.0000
    28 H9B     -1.4018  -0.9313  -1.4932   H         1 1      0.0000
    29 H5      -6.6847   1.0192   0.3208   H         1 1      0.0000
    30 H3      -4.0051  -1.8393  -1.4592   H         1 1      0.0000
    31 H12B     1.5887   1.3937  -0.6342   H         1 1      0.0000
    32 C15      4.7395   2.2874   0.2264   C.3       1 1      0.0000
    33 H15A     3.9224   2.8525   0.6853   H         1 1      0.0000
    34 H15B     5.3271   1.8109   1.0170   H         1 1      0.0000
    35 H15C     5.3849   2.9929  -0.3051   H         1 1      0.0000
    36 O2       1.0500  -1.2830   1.2687   O.3       1 1      0.0000
    37 H21      0.4298  -2.0579   1.2397   H         1 1      0.0000
    38 H22      0.8687  -1.0080  -0.7366   H         1 1      0.0000
@<TRIPOS>BOND
     1     1     2   ar
     2     1     6   ar
     3     1    29    1
     4     2     3   ar
     5     2     7    1
     6     3     4   ar
     7     3    30    1
     8     4     5   ar
     9     4     8    1
    10     5     6   ar
    11     5     9    1
    12     6    10    1
    13     8    11    1
    14     8    12    1
    15     8    28    1
    16    11    13    1
    17    11    26    1
    18    11    27    1
    19    13    14    1
    20    14    15    1
    21    14    16    1
    22    14    31    1
    23    16    17    1
    24    16    20    2
    25    17    18    1
    26    17    19    1
    27    17    32    1
    28    20    21    1
    29    20    22    1
    30    22    23    1
    31    22    24    1
    32    22    25    1
    33    32    33    1
    34    32    34    1
    35    32    35    1
    36    13    36    1
    37    36    37    1
    38    13    38    1
@<TRIPOS>SUBSTRUCTURE
     1 1           1 GROUP             0 ****  ****    0  
@<TRIPOS>MOLECULE
Molecule Name_00001_00271
    38    38     1     0     0
SMALL
NO_CHARGES
****
Generated from the CSD

@<TRIPOS>ATOM
     1 C5      -5.6512   0.5910   0.1978   C.ar      1 1      0.0000
     2 C4      -5.3707  -0.2369  -0.8951   C.ar      1 1      0.0000
     3 C3      -4.0518  -0.6175  -1.1651   C.ar      1 1      0.0000
     4 C8      -3.0006  -0.1752  -0.3470   C.ar      1 1      0.0000
     5 C7      -3.2897   0.6612   0.7419   C.ar      1 1      0.0000
     6 C6      -4.6081   1.0436   1.0132   C.ar      1 1      0.0000
     7 H4      -6.1752  -0.5783  -1.5385   H         1 1      0.0000
     8 C9      -1.5785  -0.6485  -0.5992   C.3       1 1      0.0000
     9 H7      -2.4817   1.0270   1.3716   H         1 1      0.0000
    10 H6      -4.8197   1.6973   1.8532   H         1 1      0.0000
    11 C10     -0.6182  -0.0130   0.4356   C.3       1 1      0.0000
    12 H9A     -1.5190  -1.7402  -0.5269   H         1 1      0.0000
    13 C11      0.8173  -0.4237   0.2656   C.3       1 1      0.0000
    14 C12      1.8794   0.6209   0.6480   C.3       1 1      0.0000
    15 H12A     1.7797   0.8589   1.7164   H         1 1      0.0000
    16 C13      3.3318   0.3080   0.3576   C.2       1 1      0.0000
    17 C14      4.2495   1.4618   0.0760   C.3       1 1      0.0000
    18 H14B     5.2811   1.1593   0.2875   H         1 1      0.0000
    19 H14A     4.0098   2.3174   0.7139   H         1 1      0.0000
    20 N        3.7439  -0.9252   0.3824   N.pl3     1 1      0.0000
    21 HN       3.0025  -1.6237   0.6391   H         1 1      0.0000
    22 C        5.1259  -1.4107   0.0950   C.3       1 1      0.0000
    23 H1A      5.1490  -2.4787   0.3162   H         1 1      0.0000
    24 H1C      5.3635  -1.2529  -0.9619   H         1 1      0.0000
    25 H1B      5.8522  -0.8906   0.7242   H         1 1      0.0000
    26 H10A    -0.6784   1.0860   0.3812   H         1 1      0.0000
    27 H10B    -0.9399  -0.2743   1.4564   H         1 1      0.0000
    28 H9B     -1.2564  -0.3748  -1.6099   H         1 1      0.0000
    29 H5      -6.6733   0.8899   0.4059   H         1 1      0.0000
    30 H3      -3.8384  -1.2493  -2.0246   H         1 1      0.0000
    31 H12B     1.6318   1.5587   0.1238   H         1 1      0.0000
    32 C15      4.1475   1.8887  -1.4279   C.3       1 1      0.0000
    33 H15A     4.4346   1.0697  -2.0947   H         1 1      0.0000
    34 H15B     3.1342   2.2133  -1.6831   H         1 1      0.0000
    35 H15C     4.8314   2.7247  -1.6016   H         1 1      0.0000
    36 O2       1.0401  -1.5854   1.0404   O.3       1 1      0.0000
    37 H21      0.4385  -2.3114   0.7288   H         1 1      0.0000
    38 H22      0.9681  -0.6860  -0.7806   H         1 1      0.0000
@<TRIPOS>BOND
     1     1     2   ar
     2     1     6   ar
     3     1    29    1
     4     2     3   ar
     5     2     7    1
     6     3     4   ar
     7     3    30    1
     8     4     5   ar
     9     4     8    1
    10     5     6   ar
    11     5     9    1
    12     6    10    1
    13     8    11    1
    14     8    12    1
    15     8    28    1
    16    11    13    1
    17    11    26    1
    18    11    27    1
    19    13    14    1
    20    14    15    1
    21    14    16    1
    22    14    31    1
    23    16    17    1
    24    16    20    2
    25    17    18    1
    26    17    19    1
    27    17    32    1
    28    20    21    1
    29    20    22    1
    30    22    23    1
    31    22    24    1
    32    22    25    1
    33    32    33    1
    34    32    34    1
    35    32    35    1
    36    13    36    1
    37    36    37    1
    38    13    38    1
@<TRIPOS>SUBSTRUCTURE
     1 1           1 GROUP             0 ****  ****    0  
@<TRIPOS>MOLECULE
Molecule Name_00001_00272
    38    38     1     0     0
SMALL
NO_CHARGES
****
Generated from the CSD

@<TRIPOS>ATOM
     1 C5      -4.2332   1.5328  -0.8347   C.ar      1 1      0.0000
     2 C4      -3.0732   1.1603  -1.5233   C.ar      1 1      0.0000
     3 C3      -2.2584   0.1396  -1.0220   C.ar      1 1      0.0000
     4 C8      -2.5936  -0.5186   0.1715   C.ar      1 1      0.0000
     5 C7      -3.7540  -0.1333   0.8599   C.ar      1 1      0.0000
     6 C6      -4.5699   0.8878   0.3604   C.ar      1 1      0.0000
     7 H4      -2.8008   1.6680  -2.4430   H         1 1      0.0000
     8 C9      -1.7464  -1.6754   0.6758   C.3       1 1      0.0000
     9 H7      -4.0140  -0.6220   1.7963   H         1 1      0.0000
    10 H6      -5.4609   1.1834   0.9049   H         1 1      0.0000
    11 C10     -0.7153  -1.1639   1.7112   C.3       1 1      0.0000
    12 H9A     -2.3788  -2.4399   1.1406   H         1 1      0.0000
    13 C11      0.6887  -1.0815   1.1818   C.3       1 1      0.0000
    14 C12      0.9846   0.0631   0.1982   C.3       1 1      0.0000
    15 H12A     0.7864   1.0232   0.6952   H         1 1      0.0000
    16 C13      2.3560   0.1251  -0.4399   C.2       1 1      0.0000
    17 C14      2.6365   1.2631  -1.3777   C.3       1 1      0.0000
    18 H14B     1.7418   1.4614  -1.9783   H         1 1      0.0000
    19 H14A     3.4546   1.0155  -2.0601   H         1 1      0.0000
    20 N        3.2458  -0.7770  -0.1471   N.pl3     1 1      0.0000
    21 HN       2.9261  -1.4862   0.5588   H         1 1      0.0000
    22 C        4.6276  -0.8814  -0.7017   C.3       1 1      0.0000
    23 H1A      5.1370  -1.6797  -0.1603   H         1 1      0.0000
    24 H1C      4.5833  -1.1343  -1.7659   H         1 1      0.0000
    25 H1B      5.1674   0.0583  -0.5619   H         1 1      0.0000
    26 H10A    -1.0117  -0.1681   2.0787   H         1 1      0.0000
    27 H10B    -0.7186  -1.8169   2.5985   H         1 1      0.0000
    28 H9B     -1.2189  -2.1557  -0.1556   H         1 1      0.0000
    29 H5      -4.8639   2.3269  -1.2208   H         1 1      0.0000
    30 H3      -1.3503  -0.1356  -1.5540   H         1 1      0.0000
    31 H12B     0.2433   0.0064  -0.6159   H         1 1      0.0000
    32 C15      3.0018   2.5576  -0.5746   C.3       1 1      0.0000
    33 H15A     2.1803   2.8654   0.0798   H         1 1      0.0000
    34 H15B     3.9006   2.4110   0.0319   H         1 1      0.0000
    35 H15C     3.1932   3.3676  -1.2845   H         1 1      0.0000
    36 O2       1.5697  -0.9594   2.2811   O.3       1 1      0.0000
    37 H21      1.4739  -1.7519   2.8717   H         1 1      0.0000
    38 H22      0.9114  -2.0210   0.6780   H         1 1      0.0000
@<TRIPOS>BOND
     1     1     2   ar
     2     1     6   ar
     3     1    29    1
     4     2     3   ar
     5     2     7    1
     6     3     4   ar
     7     3    30    1
     8     4     5   ar
     9     4     8    1
    10     5     6   ar
    11     5     9    1
    12     6    10    1
    13     8    11    1
    14     8    12    1
    15     8    28    1
    16    11    13    1
    17    11    26    1
    18    11    27    1
    19    13    14    1
    20    14    15    1
    21    14    16    1
    22    14    31    1
    23    16    17    1
    24    16    20    2
    25    17    18    1
    26    17    19    1
    27    17    32    1
    28    20    21    1
    29    20    22    1
    30    22    23    1
    31    22    24    1
    32    22    25    1
    33    32    33    1
    34    32    34    1
    35    32    35    1
    36    13    36    1
    37    36    37    1
    38    13    38    1
@<TRIPOS>SUBSTRUCTURE
     1 1           1 GROUP             0 ****  ****    0  
@<TRIPOS>MOLECULE
Molecule Name_00001_00273
    38    38     1     0     0
SMALL
NO_CHARGES
****
Generated from the CSD

@<TRIPOS>ATOM
     1 C5      -5.0246  -0.9415  -0.5020   C.ar      1 1      0.0000
     2 C4      -5.0389  -0.0065   0.5392   C.ar      1 1      0.0000
     3 C3      -3.8947   0.7486   0.8183   C.ar      1 1      0.0000
     4 C8      -2.7255   0.5774   0.0609   C.ar      1 1      0.0000
     5 C7      -2.7172  -0.3680  -0.9760   C.ar      1 1      0.0000
     6 C6      -3.8603  -1.1247  -1.2562   C.ar      1 1      0.0000
     7 H4      -5.9353   0.1283   1.1358   H         1 1      0.0000
     8 C9      -1.5077   1.4495   0.3187   C.3       1 1      0.0000
     9 H7      -1.8111  -0.5244  -1.5572   H         1 1      0.0000
    10 H6      -3.8406  -1.8589  -2.0551   H         1 1      0.0000
    11 C10     -0.6350   0.8231   1.4335   C.3       1 1      0.0000
    12 H9A     -0.9106   1.5541  -0.5940   H         1 1      0.0000
    13 C11      0.5429   0.0447   0.9187   C.3       1 1      0.0000
    14 C12      1.6646   0.8591   0.2523   C.3       1 1      0.0000
    15 H12A     2.0864   1.5577   0.9886   H         1 1      0.0000
    16 C13      2.8024   0.1089  -0.4068   C.2       1 1      0.0000
    17 C14      3.9016   0.9191  -1.0299   C.3       1 1      0.0000
    18 H14B     3.4662   1.7972  -1.5197   H         1 1      0.0000
    19 H14A     4.4347   0.3381  -1.7878   H         1 1      0.0000
    20 N        2.8104  -1.1915  -0.3957   N.pl3     1 1      0.0000
    21 HN       2.0016  -1.6244   0.1161   H         1 1      0.0000
    22 C        3.8329  -2.0835  -1.0177   C.3       1 1      0.0000
    23 H1A      3.5955  -3.1067  -0.7235   H         1 1      0.0000
    24 H1C      3.7869  -1.9985  -2.1082   H         1 1      0.0000
    25 H1B      4.8332  -1.8232  -0.6634   H         1 1      0.0000
    26 H10A    -0.2674   1.6098   2.1120   H         1 1      0.0000
    27 H10B    -1.2486   0.1575   2.0614   H         1 1      0.0000
    28 H9B     -1.8142   2.4572   0.6202   H         1 1      0.0000
    29 H5      -5.9102  -1.5303  -0.7169   H         1 1      0.0000
    30 H3      -3.9074   1.4634   1.6382   H         1 1      0.0000
    31 H12B     1.2026   1.5009  -0.5159   H         1 1      0.0000
    32 C15      4.9139   1.4019   0.0638   C.3       1 1      0.0000
    33 H15A     4.4225   2.0334   0.8104   H         1 1      0.0000
    34 H15B     5.3860   0.5559   0.5723   H         1 1      0.0000
    35 H15C     5.6966   1.9934  -0.4203   H         1 1      0.0000
    36 O2       1.1018  -0.6779   1.9980   O.3       1 1      0.0000
    37 H21      0.4204  -1.2969   2.3700   H         1 1      0.0000
    38 H22      0.1746  -0.6754   0.1896   H         1 1      0.0000
@<TRIPOS>BOND
     1     1     2   ar
     2     1     6   ar
     3     1    29    1
     4     2     3   ar
     5     2     7    1
     6     3     4   ar
     7     3    30    1
     8     4     5   ar
     9     4     8    1
    10     5     6   ar
    11     5     9    1
    12     6    10    1
    13     8    11    1
    14     8    12    1
    15     8    28    1
    16    11    13    1
    17    11    26    1
    18    11    27    1
    19    13    14    1
    20    14    15    1
    21    14    16    1
    22    14    31    1
    23    16    17    1
    24    16    20    2
    25    17    18    1
    26    17    19    1
    27    17    32    1
    28    20    21    1
    29    20    22    1
    30    22    23    1
    31    22    24    1
    32    22    25    1
    33    32    33    1
    34    32    34    1
    35    32    35    1
    36    13    36    1
    37    36    37    1
    38    13    38    1
@<TRIPOS>SUBSTRUCTURE
     1 1           1 GROUP             0 ****  ****    0  
@<TRIPOS>MOLECULE
Molecule Name_00001_00274
    38    38     1     0     0
SMALL
NO_CHARGES
****
Generated from the CSD

@<TRIPOS>ATOM
     1 C5      -4.1638   1.7327  -0.5253   C.ar      1 1      0.0000
     2 C4      -2.9428   1.5893  -1.1941   C.ar      1 1      0.0000
     3 C3      -2.1323   0.4774  -0.9414   C.ar      1 1      0.0000
     4 C8      -2.5326  -0.5016  -0.0188   C.ar      1 1      0.0000
     5 C7      -3.7545  -0.3459   0.6534   C.ar      1 1      0.0000
     6 C6      -4.5662   0.7658   0.4026   C.ar      1 1      0.0000
     7 H4      -2.6203   2.3444  -1.9038   H         1 1      0.0000
     8 C9      -1.6852  -1.7441   0.2002   C.3       1 1      0.0000
     9 H7      -4.0666  -1.0873   1.3855   H         1 1      0.0000
    10 H6      -5.5055   0.8806   0.9338   H         1 1      0.0000
    11 C10     -0.7537  -1.5408   1.4200   C.3       1 1      0.0000
    12 H9A     -2.3231  -2.6181   0.3725   H         1 1      0.0000
    13 C11      0.6823  -1.2918   1.0538   C.3       1 1      0.0000
    14 C12      1.0106   0.0918   0.4677   C.3       1 1      0.0000
    15 H12A     0.7416   0.8649   1.2013   H         1 1      0.0000
    16 C13      2.4230   0.3524  -0.0107   C.2       1 1      0.0000
    17 C14      2.7325   1.7160  -0.5562   C.3       1 1      0.0000
    18 H14B     3.8101   1.8976  -0.4772   H         1 1      0.0000
    19 H14A     2.2154   2.4926   0.0146   H         1 1      0.0000
    20 N        3.3196  -0.5849   0.0830   N.pl3     1 1      0.0000
    21 HN       2.9732  -1.4717   0.5270   H         1 1      0.0000
    22 C        4.7421  -0.5075  -0.3627   C.3       1 1      0.0000
    23 H1A      5.2374  -1.4219  -0.0331   H         1 1      0.0000
    24 H1C      4.7869  -0.4428  -1.4546   H         1 1      0.0000
    25 H1B      5.2362   0.3583   0.0848   H         1 1      0.0000
    26 H10A    -1.1120  -0.6974   2.0321   H         1 1      0.0000
    27 H10B    -0.8004  -2.4224   2.0792   H         1 1      0.0000
    28 H9B     -1.0799  -1.9573  -0.6877   H         1 1      0.0000
    29 H5      -4.7915   2.5966  -0.7178   H         1 1      0.0000
    30 H3      -1.1776   0.3789  -1.4535   H         1 1      0.0000
    31 H12B     0.3350   0.2634  -0.3864   H         1 1      0.0000
    32 C15      2.3143   1.8114  -2.0629   C.3       1 1      0.0000
    33 H15A     2.8557   1.0821  -2.6734   H         1 1      0.0000
    34 H15B     1.2395   1.6500  -2.1901   H         1 1      0.0000
    35 H15C     2.5585   2.8120  -2.4313   H         1 1      0.0000
    36 O2       1.4734  -1.4815   2.2104   O.3       1 1      0.0000
    37 H21      1.3616  -2.4120   2.5388   H         1 1      0.0000
    38 H22      0.9755  -2.0428   0.3217   H         1 1      0.0000
@<TRIPOS>BOND
     1     1     2   ar
     2     1     6   ar
     3     1    29    1
     4     2     3   ar
     5     2     7    1
     6     3     4   ar
     7     3    30    1
     8     4     5   ar
     9     4     8    1
    10     5     6   ar
    11     5     9    1
    12     6    10    1
    13     8    11    1
    14     8    12    1
    15     8    28    1
    16    11    13    1
    17    11    26    1
    18    11    27    1
    19    13    14    1
    20    14    15    1
    21    14    16    1
    22    14    31    1
    23    16    17    1
    24    16    20    2
    25    17    18    1
    26    17    19    1
    27    17    32    1
    28    20    21    1
    29    20    22    1
    30    22    23    1
    31    22    24    1
    32    22    25    1
    33    32    33    1
    34    32    34    1
    35    32    35    1
    36    13    36    1
    37    36    37    1
    38    13    38    1
@<TRIPOS>SUBSTRUCTURE
     1 1           1 GROUP             0 ****  ****    0  
@<TRIPOS>MOLECULE
Molecule Name_00001_00275
    38    38     1     0     0
SMALL
NO_CHARGES
****
Generated from the CSD

@<TRIPOS>ATOM
     1 C5      -4.9196  -0.5077  -0.9307   C.ar      1 1      0.0000
     2 C4      -4.9823  -0.0409   0.3872   C.ar      1 1      0.0000
     3 C3      -3.8433   0.4995   0.9937   C.ar      1 1      0.0000
     4 C8      -2.6311   0.5788   0.2906   C.ar      1 1      0.0000
     5 C7      -2.5749   0.1011  -1.0275   C.ar      1 1      0.0000
     6 C6      -3.7128  -0.4404  -1.6356   C.ar      1 1      0.0000
     7 H4      -5.9126  -0.1046   0.9422   H         1 1      0.0000
     8 C9      -1.4149   1.2321   0.9263   C.3       1 1      0.0000
     9 H7      -1.6364   0.1385  -1.5762   H         1 1      0.0000
    10 H6      -3.6564  -0.8144  -2.6528   H         1 1      0.0000
    11 C10     -0.6296   0.1901   1.7596   C.3       1 1      0.0000
    12 H9A     -0.7576   1.6505   0.1560   H         1 1      0.0000
    13 C11      0.5629  -0.3841   1.0479   C.3       1 1      0.0000
    14 C12      1.7422   0.5727   0.8041   C.3       1 1      0.0000
    15 H12A     2.1296   0.9183   1.7730   H         1 1      0.0000
    16 C13      2.9046   0.0814  -0.0319   C.2       1 1      0.0000
    17 C14      4.0585   1.0188  -0.2385   C.3       1 1      0.0000
    18 H14B     4.9539   0.4366  -0.4834   H         1 1      0.0000
    19 H14A     4.2650   1.5917   0.6699   H         1 1      0.0000
    20 N        2.8850  -1.1239  -0.5199   N.pl3     1 1      0.0000
    21 HN       2.0358  -1.6833  -0.2561   H         1 1      0.0000
    22 C        3.9271  -1.7552  -1.3822   C.3       1 1      0.0000
    23 H1A      3.6499  -2.8018  -1.5156   H         1 1      0.0000
    24 H1C      3.9539  -1.2588  -2.3575   H         1 1      0.0000
    25 H1B      4.9075  -1.6941  -0.9034   H         1 1      0.0000
    26 H10A    -0.2908   0.6415   2.7060   H         1 1      0.0000
    27 H10B    -1.2964  -0.6370   2.0513   H         1 1      0.0000
    28 H9B     -1.7194   2.0610   1.5747   H         1 1      0.0000
    29 H5      -5.8014  -0.9304  -1.4008   H         1 1      0.0000
    30 H3      -3.8945   0.8472   2.0231   H         1 1      0.0000
    31 H12B     1.3445   1.4787   0.3178   H         1 1      0.0000
    32 C15      3.7594   2.0042  -1.4191   C.3       1 1      0.0000
    33 H15A     3.6017   1.4645  -2.3580   H         1 1      0.0000
    34 H15B     2.8780   2.6189  -1.2126   H         1 1      0.0000
    35 H15C     4.6197   2.6674  -1.5480   H         1 1      0.0000
    36 O2       1.0354  -1.4876   1.7951   O.3       1 1      0.0000
    37 H21      0.3185  -2.1711   1.8653   H         1 1      0.0000
    38 H22      0.2279  -0.7547   0.0802   H         1 1      0.0000
@<TRIPOS>BOND
     1     1     2   ar
     2     1     6   ar
     3     1    29    1
     4     2     3   ar
     5     2     7    1
     6     3     4   ar
     7     3    30    1
     8     4     5   ar
     9     4     8    1
    10     5     6   ar
    11     5     9    1
    12     6    10    1
    13     8    11    1
    14     8    12    1
    15     8    28    1
    16    11    13    1
    17    11    26    1
    18    11    27    1
    19    13    14    1
    20    14    15    1
    21    14    16    1
    22    14    31    1
    23    16    17    1
    24    16    20    2
    25    17    18    1
    26    17    19    1
    27    17    32    1
    28    20    21    1
    29    20    22    1
    30    22    23    1
    31    22    24    1
    32    22    25    1
    33    32    33    1
    34    32    34    1
    35    32    35    1
    36    13    36    1
    37    36    37    1
    38    13    38    1
@<TRIPOS>SUBSTRUCTURE
     1 1           1 GROUP             0 ****  ****    0  
@<TRIPOS>MOLECULE
Molecule Name_00001_00276
    38    38     1     0     0
SMALL
NO_CHARGES
****
Generated from the CSD

@<TRIPOS>ATOM
     1 C5      -4.9067   1.4275  -0.4283   C.ar      1 1      0.0000
     2 C4      -4.6214   0.2712  -1.1632   C.ar      1 1      0.0000
     3 C3      -3.5289  -0.5295  -0.8131   C.ar      1 1      0.0000
     4 C8      -2.7108  -0.1834   0.2736   C.ar      1 1      0.0000
     5 C7      -2.9991   0.9820   1.0001   C.ar      1 1      0.0000
     6 C6      -4.0909   1.7844   0.6511   C.ar      1 1      0.0000
     7 H4      -5.2431  -0.0013  -2.0100   H         1 1      0.0000
     8 C9      -1.5688  -1.0927   0.6965   C.3       1 1      0.0000
     9 H7      -2.3609   1.2718   1.8319   H         1 1      0.0000
    10 H6      -4.3002   2.6879   1.2146   H         1 1      0.0000
    11 C10     -0.2933  -0.7509  -0.1117   C.3       1 1      0.0000
    12 H9A     -1.3623  -0.9771   1.7663   H         1 1      0.0000
    13 C11      0.8949  -1.6016   0.2384   C.3       1 1      0.0000
    14 C12      2.1437  -1.4314  -0.6430   C.3       1 1      0.0000
    15 H12A     1.8541  -1.5326  -1.6985   H         1 1      0.0000
    16 C13      2.9657  -0.1697  -0.4879   C.2       1 1      0.0000
    17 C14      2.2270   1.1251  -0.3132   C.3       1 1      0.0000
    18 H14B     1.2823   1.0763  -0.8661   H         1 1      0.0000
    19 H14A     2.8076   1.9636  -0.7083   H         1 1      0.0000
    20 N        4.2642  -0.2413  -0.4860   N.pl3     1 1      0.0000
    21 HN       4.6435  -1.2173  -0.5705   H         1 1      0.0000
    22 C        5.2212   0.8986  -0.3722   C.3       1 1      0.0000
    23 H1A      6.2236   0.4761  -0.2905   H         1 1      0.0000
    24 H1C      5.1623   1.5247  -1.2683   H         1 1      0.0000
    25 H1B      5.0013   1.4948   0.5167   H         1 1      0.0000
    26 H10A    -0.4922  -0.8514  -1.1910   H         1 1      0.0000
    27 H10B    -0.0251   0.3069   0.0398   H         1 1      0.0000
    28 H9B     -1.8330  -2.1430   0.5313   H         1 1      0.0000
    29 H5      -5.7515   2.0512  -0.7013   H         1 1      0.0000
    30 H3      -3.3036  -1.4191  -1.3972   H         1 1      0.0000
    31 H12B     2.8112  -2.2871  -0.4484   H         1 1      0.0000
    32 C15      1.9126   1.3767   1.2007   C.3       1 1      0.0000
    33 H15A     0.8439   1.2665   1.4093   H         1 1      0.0000
    34 H15B     2.4707   0.6898   1.8440   H         1 1      0.0000
    35 H15C     2.2050   2.4001   1.4536   H         1 1      0.0000
    36 O2       1.2572  -1.3263   1.5772   O.3       1 1      0.0000
    37 H21      0.5294  -1.6220   2.1846   H         1 1      0.0000
    38 H22      0.5868  -2.6446   0.1834   H         1 1      0.0000
@<TRIPOS>BOND
     1     1     2   ar
     2     1     6   ar
     3     1    29    1
     4     2     3   ar
     5     2     7    1
     6     3     4   ar
     7     3    30    1
     8     4     5   ar
     9     4     8    1
    10     5     6   ar
    11     5     9    1
    12     6    10    1
    13     8    11    1
    14     8    12    1
    15     8    28    1
    16    11    13    1
    17    11    26    1
    18    11    27    1
    19    13    14    1
    20    14    15    1
    21    14    16    1
    22    14    31    1
    23    16    17    1
    24    16    20    2
    25    17    18    1
    26    17    19    1
    27    17    32    1
    28    20    21    1
    29    20    22    1
    30    22    23    1
    31    22    24    1
    32    22    25    1
    33    32    33    1
    34    32    34    1
    35    32    35    1
    36    13    36    1
    37    36    37    1
    38    13    38    1
@<TRIPOS>SUBSTRUCTURE
     1 1           1 GROUP             0 ****  ****    0  
@<TRIPOS>MOLECULE
Molecule Name_00001_00277
    38    38     1     0     0
SMALL
NO_CHARGES
****
Generated from the CSD

@<TRIPOS>ATOM
     1 C5      -4.9481  -0.1634  -1.0245   C.ar      1 1      0.0000
     2 C4      -3.7477  -0.1105  -1.7421   C.ar      1 1      0.0000
     3 C3      -2.5434   0.1389  -1.0751   C.ar      1 1      0.0000
     4 C8      -2.5261   0.3380   0.3142   C.ar      1 1      0.0000
     5 C7      -3.7352   0.2914   1.0247   C.ar      1 1      0.0000
     6 C6      -4.9407   0.0428   0.3594   C.ar      1 1      0.0000
     7 H4      -3.7509  -0.2555  -2.8176   H         1 1      0.0000
     8 C9      -1.2089   0.5366   1.0461   C.3       1 1      0.0000
     9 H7      -3.7376   0.4641   2.0987   H         1 1      0.0000
    10 H6      -5.8711   0.0169   0.9174   H         1 1      0.0000
    11 C10     -0.3327  -0.7327   0.9118   C.3       1 1      0.0000
    12 H9A     -0.6677   1.3963   0.6356   H         1 1      0.0000
    13 C11      0.9960  -0.6308   1.6065   C.3       1 1      0.0000
    14 C12      1.9780   0.4181   1.0579   C.3       1 1      0.0000
    15 H12A     2.6436   0.7449   1.8692   H         1 1      0.0000
    16 C13      2.8252   0.0505  -0.1416   C.2       1 1      0.0000
    17 C14      4.1400   0.7554  -0.3073   C.3       1 1      0.0000
    18 H14B     4.8002   0.1410  -0.9296   H         1 1      0.0000
    19 H14A     4.6286   0.9050   0.6597   H         1 1      0.0000
    20 N        2.4118  -0.8647  -0.9680   N.pl3     1 1      0.0000
    21 HN       1.4961  -1.3055  -0.7020   H         1 1      0.0000
    22 C        3.1034  -1.3268  -2.2074   C.3       1 1      0.0000
    23 H1A      2.5417  -2.1771  -2.5967   H         1 1      0.0000
    24 H1C      3.1098  -0.5237  -2.9514   H         1 1      0.0000
    25 H1B      4.1266  -1.6364  -1.9812   H         1 1      0.0000
    26 H10A    -0.8718  -1.6074   1.3101   H         1 1      0.0000
    27 H10B    -0.1565  -0.9564  -0.1525   H         1 1      0.0000
    28 H9B     -1.3869   0.7447   2.1069   H         1 1      0.0000
    29 H5      -5.8831  -0.3530  -1.5413   H         1 1      0.0000
    30 H3      -1.6156   0.1933  -1.6403   H         1 1      0.0000
    31 H12B     1.3959   1.3150   0.7894   H         1 1      0.0000
    32 C15      3.9340   2.1418  -1.0070   C.3       1 1      0.0000
    33 H15A     3.4959   2.0242  -2.0029   H         1 1      0.0000
    34 H15B     3.2898   2.7972  -0.4129   H         1 1      0.0000
    35 H15C     4.9087   2.6257  -1.1188   H         1 1      0.0000
    36 O2       0.7611  -0.3459   2.9714   O.3       1 1      0.0000
    37 H21      0.2210  -1.0757   3.3737   H         1 1      0.0000
    38 H22      1.4796  -1.6047   1.5469   H         1 1      0.0000
@<TRIPOS>BOND
     1     1     2   ar
     2     1     6   ar
     3     1    29    1
     4     2     3   ar
     5     2     7    1
     6     3     4   ar
     7     3    30    1
     8     4     5   ar
     9     4     8    1
    10     5     6   ar
    11     5     9    1
    12     6    10    1
    13     8    11    1
    14     8    12    1
    15     8    28    1
    16    11    13    1
    17    11    26    1
    18    11    27    1
    19    13    14    1
    20    14    15    1
    21    14    16    1
    22    14    31    1
    23    16    17    1
    24    16    20    2
    25    17    18    1
    26    17    19    1
    27    17    32    1
    28    20    21    1
    29    20    22    1
    30    22    23    1
    31    22    24    1
    32    22    25    1
    33    32    33    1
    34    32    34    1
    35    32    35    1
    36    13    36    1
    37    36    37    1
    38    13    38    1
@<TRIPOS>SUBSTRUCTURE
     1 1           1 GROUP             0 ****  ****    0  
@<TRIPOS>MOLECULE
Molecule Name_00001_00278
    38    38     1     0     0
SMALL
NO_CHARGES
****
Generated from the CSD

@<TRIPOS>ATOM
     1 C5      -5.0142  -0.1714  -1.1580   C.ar      1 1      0.0000
     2 C4      -5.1857   0.0589   0.2117   C.ar      1 1      0.0000
     3 C3      -4.0721   0.1205   1.0563   C.ar      1 1      0.0000
     4 C8      -2.7771  -0.0474   0.5418   C.ar      1 1      0.0000
     5 C7      -2.6147  -0.2860  -0.8314   C.ar      1 1      0.0000
     6 C6      -3.7272  -0.3487  -1.6777   C.ar      1 1      0.0000
     7 H4      -6.1831   0.1825   0.6210   H         1 1      0.0000
     8 C9      -1.5654   0.0920   1.4485   C.3       1 1      0.0000
     9 H7      -1.6178  -0.4378  -1.2392   H         1 1      0.0000
    10 H6      -3.5910  -0.5418  -2.7368   H         1 1      0.0000
    11 C10     -0.2678  -0.1432   0.6374   C.3       1 1      0.0000
    12 H9A     -1.5359   1.0906   1.8986   H         1 1      0.0000
    13 C11      0.9888  -0.0292   1.4536   C.3       1 1      0.0000
    14 C12      2.1233   0.8166   0.8512   C.3       1 1      0.0000
    15 H12A     2.8706   1.0215   1.6309   H         1 1      0.0000
    16 C13      2.8384   0.2902  -0.3749   C.2       1 1      0.0000
    17 C14      3.9428   1.1284  -0.9499   C.3       1 1      0.0000
    18 H14B     3.6587   2.1850  -0.8912   H         1 1      0.0000
    19 H14A     4.1145   0.8818  -2.0015   H         1 1      0.0000
    20 N        2.5006  -0.8620  -0.8743   N.pl3     1 1      0.0000
    21 HN       1.7437  -1.3589  -0.3416   H         1 1      0.0000
    22 C        3.0782  -1.5137  -2.0866   C.3       1 1      0.0000
    23 H1A      2.6491  -2.5142  -2.1549   H         1 1      0.0000
    24 H1C      2.8101  -0.9411  -2.9803   H         1 1      0.0000
    25 H1B      4.1651  -1.5864  -2.0001   H         1 1      0.0000
    26 H10A    -0.2924  -1.1393   0.1667   H         1 1      0.0000
    27 H10B    -0.2113   0.5741  -0.1969   H         1 1      0.0000
    28 H9B     -1.6160  -0.6303   2.2706   H         1 1      0.0000
    29 H5      -5.8775  -0.2231  -1.8134   H         1 1      0.0000
    30 H3      -4.2127   0.2853   2.1224   H         1 1      0.0000
    31 H12B     1.7053   1.8034   0.5923   H         1 1      0.0000
    32 C15      5.2684   0.9170  -0.1422   C.3       1 1      0.0000
    33 H15A     5.1467   1.2073   0.9060   H         1 1      0.0000
    34 H15B     5.5997  -0.1249  -0.1839   H         1 1      0.0000
    35 H15C     6.0495   1.5450  -0.5808   H         1 1      0.0000
    36 O2       0.6504   0.5168   2.7132   O.3       1 1      0.0000
    37 H21      0.2432  -0.1886   3.2812   H         1 1      0.0000
    38 H22      1.3729  -1.0349   1.6178   H         1 1      0.0000
@<TRIPOS>BOND
     1     1     2   ar
     2     1     6   ar
     3     1    29    1
     4     2     3   ar
     5     2     7    1
     6     3     4   ar
     7     3    30    1
     8     4     5   ar
     9     4     8    1
    10     5     6   ar
    11     5     9    1
    12     6    10    1
    13     8    11    1
    14     8    12    1
    15     8    28    1
    16    11    13    1
    17    11    26    1
    18    11    27    1
    19    13    14    1
    20    14    15    1
    21    14    16    1
    22    14    31    1
    23    16    17    1
    24    16    20    2
    25    17    18    1
    26    17    19    1
    27    17    32    1
    28    20    21    1
    29    20    22    1
    30    22    23    1
    31    22    24    1
    32    22    25    1
    33    32    33    1
    34    32    34    1
    35    32    35    1
    36    13    36    1
    37    36    37    1
    38    13    38    1
@<TRIPOS>SUBSTRUCTURE
     1 1           1 GROUP             0 ****  ****    0  
@<TRIPOS>MOLECULE
Molecule Name_00001_00279
    38    38     1     0     0
SMALL
NO_CHARGES
****
Generated from the CSD

@<TRIPOS>ATOM
     1 C5      -4.8531   0.3773  -1.1981   C.ar      1 1      0.0000
     2 C4      -5.0674   0.2545   0.1794   C.ar      1 1      0.0000
     3 C3      -3.9888   0.0139   1.0373   C.ar      1 1      0.0000
     4 C8      -2.6863  -0.1066   0.5283   C.ar      1 1      0.0000
     5 C7      -2.4814   0.0098  -0.8550   C.ar      1 1      0.0000
     6 C6      -3.5590   0.2497  -1.7147   C.ar      1 1      0.0000
     7 H4      -6.0715   0.3384   0.5825   H         1 1      0.0000
     8 C9      -1.5076  -0.2954   1.4689   C.3       1 1      0.0000
     9 H7      -1.4797  -0.1016  -1.2640   H         1 1      0.0000
    10 H6      -3.3906   0.3300  -2.7838   H         1 1      0.0000
    11 C10     -0.1943  -0.4037   0.6562   C.3       1 1      0.0000
    12 H9A     -1.4344   0.5465   2.1662   H         1 1      0.0000
    13 C11      1.0314  -0.5967   1.5039   C.3       1 1      0.0000
    14 C12      2.2413   0.2933   1.1728   C.3       1 1      0.0000
    15 H12A     2.9663   0.2338   1.9967   H         1 1      0.0000
    16 C13      2.9730   0.0546  -0.1308   C.2       1 1      0.0000
    17 C14      4.1512   0.9322  -0.4384   C.3       1 1      0.0000
    18 H14B     4.8041   0.4185  -1.1528   H         1 1      0.0000
    19 H14A     4.7327   1.1376   0.4648   H         1 1      0.0000
    20 N        2.5848  -0.9004  -0.9236   N.pl3     1 1      0.0000
    21 HN       1.7764  -1.4633  -0.5587   H         1 1      0.0000
    22 C        3.1710  -1.2534  -2.2502   C.3       1 1      0.0000
    23 H1A      2.6831  -2.1682  -2.5894   H         1 1      0.0000
    24 H1C      2.9774  -0.4500  -2.9682   H         1 1      0.0000
    25 H1B      4.2465  -1.4239  -2.1595   H         1 1      0.0000
    26 H10A    -0.2616  -1.2383  -0.0602   H         1 1      0.0000
    27 H10B    -0.0576   0.5003   0.0414   H         1 1      0.0000
    28 H9B     -1.6382  -1.2015   2.0708   H         1 1      0.0000
    29 H5      -5.6894   0.5602  -1.8648   H         1 1      0.0000
    30 H3      -4.1636  -0.0951   2.1054   H         1 1      0.0000
    31 H12B     1.8974   1.3407   1.1721   H         1 1      0.0000
    32 C15      3.6767   2.2845  -1.0712   C.3       1 1      0.0000
    33 H15A     3.1370   2.1179  -2.0086   H         1 1      0.0000
    34 H15B     3.0306   2.8413  -0.3857   H         1 1      0.0000
    35 H15C     4.5567   2.8967  -1.2893   H         1 1      0.0000
    36 O2       0.6752  -0.3748   2.8542   O.3       1 1      0.0000
    37 H21      0.2008  -1.1728   3.2068   H         1 1      0.0000
    38 H22      1.3443  -1.6353   1.4073   H         1 1      0.0000
@<TRIPOS>BOND
     1     1     2   ar
     2     1     6   ar
     3     1    29    1
     4     2     3   ar
     5     2     7    1
     6     3     4   ar
     7     3    30    1
     8     4     5   ar
     9     4     8    1
    10     5     6   ar
    11     5     9    1
    12     6    10    1
    13     8    11    1
    14     8    12    1
    15     8    28    1
    16    11    13    1
    17    11    26    1
    18    11    27    1
    19    13    14    1
    20    14    15    1
    21    14    16    1
    22    14    31    1
    23    16    17    1
    24    16    20    2
    25    17    18    1
    26    17    19    1
    27    17    32    1
    28    20    21    1
    29    20    22    1
    30    22    23    1
    31    22    24    1
    32    22    25    1
    33    32    33    1
    34    32    34    1
    35    32    35    1
    36    13    36    1
    37    36    37    1
    38    13    38    1
@<TRIPOS>SUBSTRUCTURE
     1 1           1 GROUP             0 ****  ****    0  
@<TRIPOS>MOLECULE
Molecule Name_00001_00280
    38    38     1     0     0
SMALL
NO_CHARGES
****
Generated from the CSD

@<TRIPOS>ATOM
     1 C5      -4.9647   0.5759   0.4248   C.ar      1 1      0.0000
     2 C4      -4.7510  -0.3043  -0.6421   C.ar      1 1      0.0000
     3 C3      -3.4965  -0.8972  -0.8204   C.ar      1 1      0.0000
     4 C8      -2.4435  -0.6170   0.0643   C.ar      1 1      0.0000
     5 C7      -2.6640   0.2730   1.1266   C.ar      1 1      0.0000
     6 C6      -3.9179   0.8675   1.3062   C.ar      1 1      0.0000
     7 H4      -5.5563  -0.5219  -1.3364   H         1 1      0.0000
     8 C9      -1.1035  -1.3176  -0.0888   C.3       1 1      0.0000
     9 H7      -1.8505   0.5138   1.8073   H         1 1      0.0000
    10 H6      -4.0754   1.5605   2.1263   H         1 1      0.0000
    11 C10     -0.2084  -0.5363  -1.0813   C.3       1 1      0.0000
    12 H9A     -0.5952  -1.3893   0.8792   H         1 1      0.0000
    13 C11      0.2576   0.7947  -0.5620   C.3       1 1      0.0000
    14 C12      1.2662   0.7629   0.5987   C.3       1 1      0.0000
    15 H12A     0.7743   0.3481   1.4898   H         1 1      0.0000
    16 C13      2.5780   0.0366   0.3905   C.2       1 1      0.0000
    17 C14      3.6251   0.7160  -0.4431   C.3       1 1      0.0000
    18 H14B     3.1401   1.2219  -1.2855   H         1 1      0.0000
    19 H14A     4.3355  -0.0104  -0.8478   H         1 1      0.0000
    20 N        2.7694  -1.1229   0.9474   N.pl3     1 1      0.0000
    21 HN       1.9685  -1.4550   1.5405   H         1 1      0.0000
    22 C        3.9834  -1.9828   0.8250   C.3       1 1      0.0000
    23 H1A      3.8563  -2.8255   1.5059   H         1 1      0.0000
    24 H1C      4.0742  -2.3544  -0.2007   H         1 1      0.0000
    25 H1B      4.8790  -1.4209   1.1008   H         1 1      0.0000
    26 H10A     0.6750  -1.1389  -1.3477   H         1 1      0.0000
    27 H10B    -0.7492  -0.3745  -2.0274   H         1 1      0.0000
    28 H9B     -1.2448  -2.3405  -0.4547   H         1 1      0.0000
    29 H5      -5.9363   1.0391   0.5618   H         1 1      0.0000
    30 H3      -3.3324  -1.5691  -1.6600   H         1 1      0.0000
    31 H12B     1.5042   1.8059   0.8652   H         1 1      0.0000
    32 C15      4.3970   1.7811   0.4078   C.3       1 1      0.0000
    33 H15A     3.7217   2.5560   0.7837   H         1 1      0.0000
    34 H15B     4.9107   1.3185   1.2560   H         1 1      0.0000
    35 H15C     5.1459   2.2616  -0.2285   H         1 1      0.0000
    36 O2       0.8395   1.5092  -1.6346   O.3       1 1      0.0000
    37 H21      0.1637   1.6400  -2.3503   H         1 1      0.0000
    38 H22     -0.6186   1.3484  -0.2281   H         1 1      0.0000
@<TRIPOS>BOND
     1     1     2   ar
     2     1     6   ar
     3     1    29    1
     4     2     3   ar
     5     2     7    1
     6     3     4   ar
     7     3    30    1
     8     4     5   ar
     9     4     8    1
    10     5     6   ar
    11     5     9    1
    12     6    10    1
    13     8    11    1
    14     8    12    1
    15     8    28    1
    16    11    13    1
    17    11    26    1
    18    11    27    1
    19    13    14    1
    20    14    15    1
    21    14    16    1
    22    14    31    1
    23    16    17    1
    24    16    20    2
    25    17    18    1
    26    17    19    1
    27    17    32    1
    28    20    21    1
    29    20    22    1
    30    22    23    1
    31    22    24    1
    32    22    25    1
    33    32    33    1
    34    32    34    1
    35    32    35    1
    36    13    36    1
    37    36    37    1
    38    13    38    1
@<TRIPOS>SUBSTRUCTURE
     1 1           1 GROUP             0 ****  ****    0  
@<TRIPOS>MOLECULE
Molecule Name_00001_00281
    38    38     1     0     0
SMALL
NO_CHARGES
****
Generated from the CSD

@<TRIPOS>ATOM
     1 C5      -4.9038   0.0294  -0.5786   C.ar      1 1      0.0000
     2 C4      -4.6825   0.3297   0.7702   C.ar      1 1      0.0000
     3 C3      -3.3958   0.6530   1.2139   C.ar      1 1      0.0000
     4 C8      -2.3177   0.6795   0.3154   C.ar      1 1      0.0000
     5 C7      -2.5469   0.3692  -1.0337   C.ar      1 1      0.0000
     6 C6      -3.8330   0.0449  -1.4792   C.ar      1 1      0.0000
     7 H4      -5.5077   0.3047   1.4747   H         1 1      0.0000
     8 C9      -0.9353   1.1014   0.7854   C.3       1 1      0.0000
     9 H7      -1.7163   0.3666  -1.7360   H         1 1      0.0000
    10 H6      -3.9978  -0.2013  -2.5232   H         1 1      0.0000
    11 C10     -0.1722  -0.1218   1.3495   C.3       1 1      0.0000
    12 H9A     -0.3642   1.5348  -0.0431   H         1 1      0.0000
    13 C11      0.2107  -1.1337   0.3066   C.3       1 1      0.0000
    14 C12      1.2410  -0.6815  -0.7419   C.3       1 1      0.0000
    15 H12A     0.7939   0.1029  -1.3688   H         1 1      0.0000
    16 C13      2.5929  -0.2004  -0.2596   C.2       1 1      0.0000
    17 C14      2.6795   1.1927   0.2923   C.3       1 1      0.0000
    18 H14B     3.5391   1.2576   0.9687   H         1 1      0.0000
    19 H14A     1.7805   1.4448   0.8619   H         1 1      0.0000
    20 N        3.6186  -0.9981  -0.3125   N.pl3     1 1      0.0000
    21 HN       3.4009  -1.9584  -0.6785   H         1 1      0.0000
    22 C        5.0195  -0.6794   0.0923   C.3       1 1      0.0000
    23 H1A      5.5966  -1.6027   0.0251   H         1 1      0.0000
    24 H1C      5.4435   0.0651  -0.5892   H         1 1      0.0000
    25 H1B      5.0449  -0.3055   1.1188   H         1 1      0.0000
    26 H10A     0.7408   0.2100   1.8698   H         1 1      0.0000
    27 H10B    -0.7820  -0.6230   2.1182   H         1 1      0.0000
    28 H9B     -1.0120   1.8713   1.5610   H         1 1      0.0000
    29 H5      -5.9007  -0.2251  -0.9231   H         1 1      0.0000
    30 H3      -3.2274   0.8712   2.2662   H         1 1      0.0000
    31 H12B     1.4160  -1.5272  -1.4272   H         1 1      0.0000
    32 C15      2.8702   2.2301  -0.8661   C.3       1 1      0.0000
    33 H15A     3.7923   2.0392  -1.4238   H         1 1      0.0000
    34 H15B     2.0261   2.2112  -1.5620   H         1 1      0.0000
    35 H15C     2.9364   3.2318  -0.4315   H         1 1      0.0000
    36 O2       0.7215  -2.2762   0.9649   O.3       1 1      0.0000
    37 H21      0.0249  -2.6517   1.5647   H         1 1      0.0000
    38 H22     -0.6951  -1.4291  -0.2208   H         1 1      0.0000
@<TRIPOS>BOND
     1     1     2   ar
     2     1     6   ar
     3     1    29    1
     4     2     3   ar
     5     2     7    1
     6     3     4   ar
     7     3    30    1
     8     4     5   ar
     9     4     8    1
    10     5     6   ar
    11     5     9    1
    12     6    10    1
    13     8    11    1
    14     8    12    1
    15     8    28    1
    16    11    13    1
    17    11    26    1
    18    11    27    1
    19    13    14    1
    20    14    15    1
    21    14    16    1
    22    14    31    1
    23    16    17    1
    24    16    20    2
    25    17    18    1
    26    17    19    1
    27    17    32    1
    28    20    21    1
    29    20    22    1
    30    22    23    1
    31    22    24    1
    32    22    25    1
    33    32    33    1
    34    32    34    1
    35    32    35    1
    36    13    36    1
    37    36    37    1
    38    13    38    1
@<TRIPOS>SUBSTRUCTURE
     1 1           1 GROUP             0 ****  ****    0  
@<TRIPOS>MOLECULE
Molecule Name_00001_00282
    38    38     1     0     0
SMALL
NO_CHARGES
****
Generated from the CSD

@<TRIPOS>ATOM
     1 C5      -4.9367   0.3465   0.4779   C.ar      1 1      0.0000
     2 C4      -4.6273   0.0509  -0.8545   C.ar      1 1      0.0000
     3 C3      -3.3430  -0.3873  -1.1947   C.ar      1 1      0.0000
     4 C8      -2.3554  -0.5343  -0.2081   C.ar      1 1      0.0000
     5 C7      -2.6718  -0.2279   1.1242   C.ar      1 1      0.0000
     6 C6      -3.9556   0.2111   1.4662   C.ar      1 1      0.0000
     7 H4      -5.3813   0.1685  -1.6262   H         1 1      0.0000
     8 C9      -0.9833  -1.0793  -0.5688   C.3       1 1      0.0000
     9 H7      -1.9097  -0.3185   1.8950   H         1 1      0.0000
    10 H6      -4.1874   0.4531   2.4985   H         1 1      0.0000
    11 C10     -0.0611   0.0744  -1.0328   C.3       1 1      0.0000
    12 H9A     -0.5309  -1.5810   0.2938   H         1 1      0.0000
    13 C11      0.3229   1.0253   0.0656   C.3       1 1      0.0000
    14 C12      1.2616   0.4746   1.1524   C.3       1 1      0.0000
    15 H12A     0.7234  -0.2815   1.7414   H         1 1      0.0000
    16 C13      2.5928  -0.1056   0.7249   C.2       1 1      0.0000
    17 C14      3.6695   0.8545   0.3102   C.3       1 1      0.0000
    18 H14B     4.6478   0.3913   0.4803   H         1 1      0.0000
    19 H14A     3.6228   1.7739   0.9007   H         1 1      0.0000
    20 N        2.7739  -1.3932   0.7500   N.pl3     1 1      0.0000
    21 HN       1.9497  -1.9387   1.1059   H         1 1      0.0000
    22 C        4.0052  -2.1299   0.3388   C.3       1 1      0.0000
    23 H1A      3.8573  -3.1803   0.5935   H         1 1      0.0000
    24 H1C      4.1523  -2.0349  -0.7418   H         1 1      0.0000
    25 H1B      4.8776  -1.7433   0.8713   H         1 1      0.0000
    26 H10A     0.8585  -0.3347  -1.4815   H         1 1      0.0000
    27 H10B    -0.5507   0.6461  -1.8373   H         1 1      0.0000
    28 H9B     -1.0641  -1.8239  -1.3684   H         1 1      0.0000
    29 H5      -5.9315   0.6900   0.7422   H         1 1      0.0000
    30 H3      -3.1042  -0.6015  -2.2341   H         1 1      0.0000
    31 H12B     1.4696   1.2922   1.8622   H         1 1      0.0000
    32 C15      3.5351   1.2049  -1.2108   C.3       1 1      0.0000
    33 H15A     4.4275   0.9052  -1.7689   H         1 1      0.0000
    34 H15B     2.6607   0.7209  -1.6563   H         1 1      0.0000
    35 H15C     3.4183   2.2879  -1.3115   H         1 1      0.0000
    36 O2       0.9399   2.1540  -0.5216   O.3       1 1      0.0000
    37 H21      0.3032   2.5923  -1.1450   H         1 1      0.0000
    38 H22     -0.5918   1.3602   0.5526   H         1 1      0.0000
@<TRIPOS>BOND
     1     1     2   ar
     2     1     6   ar
     3     1    29    1
     4     2     3   ar
     5     2     7    1
     6     3     4   ar
     7     3    30    1
     8     4     5   ar
     9     4     8    1
    10     5     6   ar
    11     5     9    1
    12     6    10    1
    13     8    11    1
    14     8    12    1
    15     8    28    1
    16    11    13    1
    17    11    26    1
    18    11    27    1
    19    13    14    1
    20    14    15    1
    21    14    16    1
    22    14    31    1
    23    16    17    1
    24    16    20    2
    25    17    18    1
    26    17    19    1
    27    17    32    1
    28    20    21    1
    29    20    22    1
    30    22    23    1
    31    22    24    1
    32    22    25    1
    33    32    33    1
    34    32    34    1
    35    32    35    1
    36    13    36    1
    37    36    37    1
    38    13    38    1
@<TRIPOS>SUBSTRUCTURE
     1 1           1 GROUP             0 ****  ****    0  
@<TRIPOS>MOLECULE
Molecule Name_00001_00283
    38    38     1     0     0
SMALL
NO_CHARGES
****
Generated from the CSD

@<TRIPOS>ATOM
     1 C5      -4.9586   0.4395   1.0873   C.ar      1 1      0.0000
     2 C4      -5.0156   0.0340  -0.2510   C.ar      1 1      0.0000
     3 C3      -3.8382  -0.0874  -0.9967   C.ar      1 1      0.0000
     4 C8      -2.5930   0.1952  -0.4139   C.ar      1 1      0.0000
     5 C7      -2.5456   0.6090   0.9260   C.ar      1 1      0.0000
     6 C6      -3.7221   0.7316   1.6734   C.ar      1 1      0.0000
     7 H4      -5.9738  -0.1795  -0.7135   H         1 1      0.0000
     8 C9      -1.3105  -0.0071  -1.2041   C.3       1 1      0.0000
     9 H7      -1.5886   0.8503   1.3834   H         1 1      0.0000
    10 H6      -3.6748   1.0602   2.7066   H         1 1      0.0000
    11 C10     -0.3715  -0.9789  -0.4487   C.3       1 1      0.0000
    12 H9A     -1.5318  -0.4145  -2.1968   H         1 1      0.0000
    13 C11      0.9282  -1.2416  -1.1558   C.3       1 1      0.0000
    14 C12      1.9343  -0.0791  -1.1960   C.3       1 1      0.0000
    15 H12A     1.4017   0.8472  -1.4541   H         1 1      0.0000
    16 C13      2.7829   0.1790   0.0308   C.2       1 1      0.0000
    17 C14      4.0644   0.9377  -0.1565   C.3       1 1      0.0000
    18 H14B     4.5356   0.6197  -1.0932   H         1 1      0.0000
    19 H14A     4.7629   0.7341   0.6601   H         1 1      0.0000
    20 N        2.3768  -0.2337   1.1952   N.pl3     1 1      0.0000
    21 HN       1.4401  -0.7089   1.1828   H         1 1      0.0000
    22 C        3.0969  -0.0894   2.4947   C.3       1 1      0.0000
    23 H1A      2.4267  -0.4419   3.2799   H         1 1      0.0000
    24 H1C      4.0036  -0.7030   2.4879   H         1 1      0.0000
    25 H1B      3.3539   0.9572   2.6750   H         1 1      0.0000
    26 H10A    -0.1515  -0.5858   0.5571   H         1 1      0.0000
    27 H10B    -0.8818  -1.9410  -0.2824   H         1 1      0.0000
    28 H9B     -0.7981   0.9493  -1.3555   H         1 1      0.0000
    29 H5      -5.8715   0.5375   1.6655   H         1 1      0.0000
    30 H3      -3.8901  -0.3889  -2.0407   H         1 1      0.0000
    31 H12B     2.6198  -0.2573  -2.0409   H         1 1      0.0000
    32 C15      3.7840   2.4772  -0.2304   C.3       1 1      0.0000
    33 H15A     3.1301   2.7229  -1.0729   H         1 1      0.0000
    34 H15B     3.3244   2.8442   0.6923   H         1 1      0.0000
    35 H15C     4.7344   2.9997  -0.3736   H         1 1      0.0000
    36 O2       1.5541  -2.3473  -0.5352   O.3       1 1      0.0000
    37 H21      0.9629  -3.1425  -0.6016   H         1 1      0.0000
    38 H22      0.6990  -1.5208  -2.1832   H         1 1      0.0000
@<TRIPOS>BOND
     1     1     2   ar
     2     1     6   ar
     3     1    29    1
     4     2     3   ar
     5     2     7    1
     6     3     4   ar
     7     3    30    1
     8     4     5   ar
     9     4     8    1
    10     5     6   ar
    11     5     9    1
    12     6    10    1
    13     8    11    1
    14     8    12    1
    15     8    28    1
    16    11    13    1
    17    11    26    1
    18    11    27    1
    19    13    14    1
    20    14    15    1
    21    14    16    1
    22    14    31    1
    23    16    17    1
    24    16    20    2
    25    17    18    1
    26    17    19    1
    27    17    32    1
    28    20    21    1
    29    20    22    1
    30    22    23    1
    31    22    24    1
    32    22    25    1
    33    32    33    1
    34    32    34    1
    35    32    35    1
    36    13    36    1
    37    36    37    1
    38    13    38    1
@<TRIPOS>SUBSTRUCTURE
     1 1           1 GROUP             0 ****  ****    0  
@<TRIPOS>MOLECULE
Molecule Name_00001_00284
    38    38     1     0     0
SMALL
NO_CHARGES
****
Generated from the CSD

@<TRIPOS>ATOM
     1 C5      -4.7290   1.5968   0.1587   C.ar      1 1      0.0000
     2 C4      -4.8155   0.5037  -0.7109   C.ar      1 1      0.0000
     3 C3      -3.7773  -0.4325  -0.7644   C.ar      1 1      0.0000
     4 C8      -2.6430  -0.2864   0.0493   C.ar      1 1      0.0000
     5 C7      -2.5608   0.8169   0.9125   C.ar      1 1      0.0000
     6 C6      -3.5978   1.7547   0.9670   C.ar      1 1      0.0000
     7 H4      -5.6846   0.3854  -1.3499   H         1 1      0.0000
     8 C9      -1.5503  -1.3427   0.0422   C.3       1 1      0.0000
     9 H7      -1.6781   0.9522   1.5336   H         1 1      0.0000
    10 H6      -3.5204   2.6086   1.6322   H         1 1      0.0000
    11 C10     -0.2248  -0.7292  -0.4712   C.3       1 1      0.0000
    12 H9A     -1.3980  -1.7439   1.0503   H         1 1      0.0000
    13 C11      0.9194  -1.7023  -0.5141   C.3       1 1      0.0000
    14 C12      2.2484  -1.1737  -1.0796   C.3       1 1      0.0000
    15 H12A     2.1057  -0.9008  -2.1348   H         1 1      0.0000
    16 C13      2.9219  -0.0184  -0.3701   C.2       1 1      0.0000
    17 C14      2.2946   1.3390  -0.4999   C.3       1 1      0.0000
    18 H14B     1.4617   1.2826  -1.2096   H         1 1      0.0000
    19 H14A     3.0151   2.0685  -0.8807   H         1 1      0.0000
    20 N        3.9913  -0.2312   0.3387   N.pl3     1 1      0.0000
    21 HN       4.2908  -1.2373   0.3779   H         1 1      0.0000
    22 C        4.7919   0.7905   1.0758   C.3       1 1      0.0000
    23 H1A      5.7415   0.3272   1.3472   H         1 1      0.0000
    24 H1C      4.9798   1.6535   0.4291   H         1 1      0.0000
    25 H1B      4.2671   1.1072   1.9805   H         1 1      0.0000
    26 H10A    -0.3687  -0.3105  -1.4803   H         1 1      0.0000
    27 H10B     0.0637   0.1248   0.1623   H         1 1      0.0000
    28 H9B     -1.8339  -2.1840  -0.5997   H         1 1      0.0000
    29 H5      -5.5320   2.3255   0.1984   H         1 1      0.0000
    30 H3      -3.8436  -1.2721  -1.4529   H         1 1      0.0000
    31 H12B     2.9632  -2.0129  -1.0975   H         1 1      0.0000
    32 C15      1.7453   1.8235   0.8849   C.3       1 1      0.0000
    33 H15A     1.2942   0.9986   1.4451   H         1 1      0.0000
    34 H15B     2.5360   2.2728   1.4932   H         1 1      0.0000
    35 H15C     0.9733   2.5787   0.7104   H         1 1      0.0000
    36 O2       1.1524  -2.1699   0.7999   O.3       1 1      0.0000
    37 H21      0.3781  -2.7146   1.0995   H         1 1      0.0000
    38 H22      0.6124  -2.5524  -1.1216   H         1 1      0.0000
@<TRIPOS>BOND
     1     1     2   ar
     2     1     6   ar
     3     1    29    1
     4     2     3   ar
     5     2     7    1
     6     3     4   ar
     7     3    30    1
     8     4     5   ar
     9     4     8    1
    10     5     6   ar
    11     5     9    1
    12     6    10    1
    13     8    11    1
    14     8    12    1
    15     8    28    1
    16    11    13    1
    17    11    26    1
    18    11    27    1
    19    13    14    1
    20    14    15    1
    21    14    16    1
    22    14    31    1
    23    16    17    1
    24    16    20    2
    25    17    18    1
    26    17    19    1
    27    17    32    1
    28    20    21    1
    29    20    22    1
    30    22    23    1
    31    22    24    1
    32    22    25    1
    33    32    33    1
    34    32    34    1
    35    32    35    1
    36    13    36    1
    37    36    37    1
    38    13    38    1
@<TRIPOS>SUBSTRUCTURE
     1 1           1 GROUP             0 ****  ****    0  
@<TRIPOS>MOLECULE
Molecule Name_00001_00285
    38    38     1     0     0
SMALL
NO_CHARGES
****
Generated from the CSD

@<TRIPOS>ATOM
     1 C5      -4.9129   0.2280   0.9190   C.ar      1 1      0.0000
     2 C4      -4.0931   1.3491   0.7473   C.ar      1 1      0.0000
     3 C3      -2.9394   1.2594  -0.0390   C.ar      1 1      0.0000
     4 C8      -2.5931   0.0498  -0.6610   C.ar      1 1      0.0000
     5 C7      -3.4162  -1.0716  -0.4769   C.ar      1 1      0.0000
     6 C6      -4.5701  -0.9840   0.3096   C.ar      1 1      0.0000
     7 H4      -4.3476   2.2872   1.2300   H         1 1      0.0000
     8 C9      -1.3795  -0.0261  -1.5729   C.3       1 1      0.0000
     9 H7      -3.1480  -2.0200  -0.9372   H         1 1      0.0000
    10 H6      -5.1954  -1.8595   0.4520   H         1 1      0.0000
    11 C10     -0.1126   0.4250  -0.8059   C.3       1 1      0.0000
    12 H9A     -1.2375  -1.0493  -1.9382   H         1 1      0.0000
    13 C11      0.3627  -0.5656   0.2194   C.3       1 1      0.0000
    14 C12      1.6343  -0.1895   0.9985   C.3       1 1      0.0000
    15 H12A     1.7490  -0.8751   1.8500   H         1 1      0.0000
    16 C13      2.9468  -0.1320   0.2462   C.2       1 1      0.0000
    17 C14      3.2372   1.1049  -0.5529   C.3       1 1      0.0000
    18 H14B     2.3092   1.4590  -1.0155   H         1 1      0.0000
    19 H14A     3.9552   0.8958  -1.3510   H         1 1      0.0000
    20 N        3.7824  -1.1250   0.3289   N.pl3     1 1      0.0000
    21 HN       3.4678  -1.9032   0.9606   H         1 1      0.0000
    22 C        5.0989  -1.2443  -0.3644   C.3       1 1      0.0000
    23 H1A      5.5864  -2.1439   0.0138   H         1 1      0.0000
    24 H1C      4.9436  -1.3410  -1.4437   H         1 1      0.0000
    25 H1B      5.7229  -0.3727  -0.1520   H         1 1      0.0000
    26 H10A     0.7086   0.6190  -1.5147   H         1 1      0.0000
    27 H10B    -0.3003   1.3875  -0.3039   H         1 1      0.0000
    28 H9B     -1.5191   0.6131  -2.4516   H         1 1      0.0000
    29 H5      -5.8059   0.2955   1.5316   H         1 1      0.0000
    30 H3      -2.2984   2.1304  -0.1568   H         1 1      0.0000
    31 H12B     1.4693   0.8017   1.4521   H         1 1      0.0000
    32 C15      3.8023   2.2353   0.3730   C.3       1 1      0.0000
    33 H15A     3.0838   2.5082   1.1522   H         1 1      0.0000
    34 H15B     4.7399   1.9311   0.8479   H         1 1      0.0000
    35 H15C     3.9966   3.1226  -0.2366   H         1 1      0.0000
    36 O2      -0.6811  -0.7745   1.1501   O.3       1 1      0.0000
    37 H21     -1.2339  -1.5466   0.8598   H         1 1      0.0000
    38 H22      0.5500  -1.5098  -0.2900   H         1 1      0.0000
@<TRIPOS>BOND
     1     1     2   ar
     2     1     6   ar
     3     1    29    1
     4     2     3   ar
     5     2     7    1
     6     3     4   ar
     7     3    30    1
     8     4     5   ar
     9     4     8    1
    10     5     6   ar
    11     5     9    1
    12     6    10    1
    13     8    11    1
    14     8    12    1
    15     8    28    1
    16    11    13    1
    17    11    26    1
    18    11    27    1
    19    13    14    1
    20    14    15    1
    21    14    16    1
    22    14    31    1
    23    16    17    1
    24    16    20    2
    25    17    18    1
    26    17    19    1
    27    17    32    1
    28    20    21    1
    29    20    22    1
    30    22    23    1
    31    22    24    1
    32    22    25    1
    33    32    33    1
    34    32    34    1
    35    32    35    1
    36    13    36    1
    37    36    37    1
    38    13    38    1
@<TRIPOS>SUBSTRUCTURE
     1 1           1 GROUP             0 ****  ****    0  
@<TRIPOS>MOLECULE
Molecule Name_00001_00286
    38    38     1     0     0
SMALL
NO_CHARGES
****
Generated from the CSD

@<TRIPOS>ATOM
     1 C5      -4.9187   0.3501  -0.5253   C.ar      1 1      0.0000
     2 C4      -4.2047  -0.8139  -0.8319   C.ar      1 1      0.0000
     3 C3      -2.9864  -1.0761  -0.1963   C.ar      1 1      0.0000
     4 C8      -2.4691  -0.1789   0.7511   C.ar      1 1      0.0000
     5 C7      -3.1875   0.9897   1.0467   C.ar      1 1      0.0000
     6 C6      -4.4059   1.2540   0.4116   C.ar      1 1      0.0000
     7 H4      -4.5920  -1.5104  -1.5686   H         1 1      0.0000
     8 C9      -1.1823  -0.5012   1.4929   C.3       1 1      0.0000
     9 H7      -2.7875   1.7026   1.7643   H         1 1      0.0000
    10 H6      -4.9494   2.1647   0.6416   H         1 1      0.0000
    11 C10     -0.0357  -0.7450   0.4816   C.3       1 1      0.0000
    12 H9A     -0.9079   0.3228   2.1609   H         1 1      0.0000
    13 C11      0.4438   0.5019  -0.2066   C.3       1 1      0.0000
    14 C12      1.6486   0.3447  -1.1495   C.3       1 1      0.0000
    15 H12A     1.7561   1.2593  -1.7495   H         1 1      0.0000
    16 C13      2.9941   0.0044  -0.5449   C.2       1 1      0.0000
    17 C14      3.6984   1.0770   0.2340   C.3       1 1      0.0000
    18 H14B     3.5490   2.0402  -0.2664   H         1 1      0.0000
    19 H14A     4.7738   0.8836   0.2824   H         1 1      0.0000
    20 N        3.4846  -1.1910  -0.6924   N.pl3     1 1      0.0000
    21 HN       2.8617  -1.8515  -1.2209   H         1 1      0.0000
    22 C        4.8003  -1.6847  -0.1895   C.3       1 1      0.0000
    23 H1A      4.8443  -2.7563  -0.3884   H         1 1      0.0000
    24 H1C      5.6144  -1.1822  -0.7216   H         1 1      0.0000
    25 H1B      4.8895  -1.5076   0.8851   H         1 1      0.0000
    26 H10A     0.8205  -1.2184   0.9887   H         1 1      0.0000
    27 H10B    -0.3585  -1.4674  -0.2851   H         1 1      0.0000
    28 H9B     -1.3119  -1.3921   2.1171   H         1 1      0.0000
    29 H5      -5.8620   0.5562  -1.0204   H         1 1      0.0000
    30 H3      -2.4289  -1.9752  -0.4496   H         1 1      0.0000
    31 H12B     1.4039  -0.4458  -1.8780   H         1 1      0.0000
    32 C15      3.1197   1.1685   1.6870   C.3       1 1      0.0000
    33 H15A     2.2184   1.7884   1.7183   H         1 1      0.0000
    34 H15B     2.8811   0.1777   2.0850   H         1 1      0.0000
    35 H15C     3.8718   1.6283   2.3349   H         1 1      0.0000
    36 O2      -0.6326   1.0392  -0.9496   O.3       1 1      0.0000
    37 H21     -1.0120   1.8190  -0.4659   H         1 1      0.0000
    38 H22      0.7131   1.2250   0.5619   H         1 1      0.0000
@<TRIPOS>BOND
     1     1     2   ar
     2     1     6   ar
     3     1    29    1
     4     2     3   ar
     5     2     7    1
     6     3     4   ar
     7     3    30    1
     8     4     5   ar
     9     4     8    1
    10     5     6   ar
    11     5     9    1
    12     6    10    1
    13     8    11    1
    14     8    12    1
    15     8    28    1
    16    11    13    1
    17    11    26    1
    18    11    27    1
    19    13    14    1
    20    14    15    1
    21    14    16    1
    22    14    31    1
    23    16    17    1
    24    16    20    2
    25    17    18    1
    26    17    19    1
    27    17    32    1
    28    20    21    1
    29    20    22    1
    30    22    23    1
    31    22    24    1
    32    22    25    1
    33    32    33    1
    34    32    34    1
    35    32    35    1
    36    13    36    1
    37    36    37    1
    38    13    38    1
@<TRIPOS>SUBSTRUCTURE
     1 1           1 GROUP             0 ****  ****    0  
@<TRIPOS>MOLECULE
Molecule Name_00001_00287
    38    38     1     0     0
SMALL
NO_CHARGES
****
Generated from the CSD

@<TRIPOS>ATOM
     1 C5      -4.9661   0.5888  -0.4993   C.ar      1 1      0.0000
     2 C4      -4.2466  -0.4015  -1.1775   C.ar      1 1      0.0000
     3 C3      -3.0723  -0.9194  -0.6207   C.ar      1 1      0.0000
     4 C8      -2.6051  -0.4535   0.6181   C.ar      1 1      0.0000
     5 C7      -3.3282   0.5454   1.2876   C.ar      1 1      0.0000
     6 C6      -4.5026   1.0651   0.7320   C.ar      1 1      0.0000
     7 H4      -4.5949  -0.7633  -2.1396   H         1 1      0.0000
     8 C9      -1.3696  -1.0686   1.2547   C.3       1 1      0.0000
     9 H7      -2.9659   0.9291   2.2387   H         1 1      0.0000
    10 H6      -5.0499   1.8432   1.2543   H         1 1      0.0000
    11 C10     -0.1657  -0.9581   0.2877   C.3       1 1      0.0000
    12 H9A     -1.1283  -0.5594   2.1943   H         1 1      0.0000
    13 C11      0.3679   0.4387   0.1379   C.3       1 1      0.0000
    14 C12      1.6268   0.6025  -0.7304   C.3       1 1      0.0000
    15 H12A     1.7802   1.6702  -0.9416   H         1 1      0.0000
    16 C13      2.9290   0.0196  -0.2244   C.2       1 1      0.0000
    17 C14      3.5950   0.7049   0.9331   C.3       1 1      0.0000
    18 H14B     4.2552  -0.0077   1.4400   H         1 1      0.0000
    19 H14A     2.8555   1.0563   1.6582   H         1 1      0.0000
    20 N        3.4154  -1.0517  -0.7785   N.pl3     1 1      0.0000
    21 HN       2.8195  -1.4495  -1.5467   H         1 1      0.0000
    22 C        4.6926  -1.7385  -0.4252   C.3       1 1      0.0000
    23 H1A      4.7378  -2.6615  -1.0049   H         1 1      0.0000
    24 H1C      5.5430  -1.1014  -0.6889   H         1 1      0.0000
    25 H1B      4.7174  -1.9743   0.6414   H         1 1      0.0000
    26 H10A     0.6529  -1.6128   0.6278   H         1 1      0.0000
    27 H10B    -0.4481  -1.3350  -0.7083   H         1 1      0.0000
    28 H9B     -1.5465  -2.1225   1.4959   H         1 1      0.0000
    29 H5      -5.8750   0.9938  -0.9320   H         1 1      0.0000
    30 H3      -2.5095  -1.6785  -1.1595   H         1 1      0.0000
    31 H12B     1.4192   0.1457  -1.7121   H         1 1      0.0000
    32 C15      4.4513   1.9177   0.4330   C.3       1 1      0.0000
    33 H15A     5.2386   1.5929  -0.2543   H         1 1      0.0000
    34 H15B     3.8298   2.6650  -0.0696   H         1 1      0.0000
    35 H15C     4.9274   2.3901   1.2972   H         1 1      0.0000
    36 O2      -0.6552   1.2471  -0.4090   O.3       1 1      0.0000
    37 H21     -1.0636   1.7961   0.3106   H         1 1      0.0000
    38 H22      0.5969   0.8174   1.1329   H         1 1      0.0000
@<TRIPOS>BOND
     1     1     2   ar
     2     1     6   ar
     3     1    29    1
     4     2     3   ar
     5     2     7    1
     6     3     4   ar
     7     3    30    1
     8     4     5   ar
     9     4     8    1
    10     5     6   ar
    11     5     9    1
    12     6    10    1
    13     8    11    1
    14     8    12    1
    15     8    28    1
    16    11    13    1
    17    11    26    1
    18    11    27    1
    19    13    14    1
    20    14    15    1
    21    14    16    1
    22    14    31    1
    23    16    17    1
    24    16    20    2
    25    17    18    1
    26    17    19    1
    27    17    32    1
    28    20    21    1
    29    20    22    1
    30    22    23    1
    31    22    24    1
    32    22    25    1
    33    32    33    1
    34    32    34    1
    35    32    35    1
    36    13    36    1
    37    36    37    1
    38    13    38    1
@<TRIPOS>SUBSTRUCTURE
     1 1           1 GROUP             0 ****  ****    0  
@<TRIPOS>MOLECULE
Molecule Name_00001_00288
    38    38     1     0     0
SMALL
NO_CHARGES
****
Generated from the CSD

@<TRIPOS>ATOM
     1 C5      -5.6776  -0.1574  -0.2933   C.ar      1 1      0.0000
     2 C4      -5.0979  -0.6785   0.8690   C.ar      1 1      0.0000
     3 C3      -3.7494  -0.4336   1.1496   C.ar      1 1      0.0000
     4 C8      -2.9668   0.3335   0.2726   C.ar      1 1      0.0000
     5 C7      -3.5538   0.8454  -0.8946   C.ar      1 1      0.0000
     6 C6      -4.9022   0.6009  -1.1773   C.ar      1 1      0.0000
     7 H4      -5.6921  -1.2794   1.5500   H         1 1      0.0000
     8 C9      -1.5223   0.6588   0.6155   C.3       1 1      0.0000
     9 H7      -2.9529   1.4245  -1.5923   H         1 1      0.0000
    10 H6      -5.3442   0.9948  -2.0868   H         1 1      0.0000
    11 C10     -0.5934  -0.4790   0.1261   C.3       1 1      0.0000
    12 H9A     -1.2196   1.6015   0.1464   H         1 1      0.0000
    13 C11      0.8611  -0.2476   0.4249   C.3       1 1      0.0000
    14 C12      1.8462  -0.4950  -0.7300   C.3       1 1      0.0000
    15 H12A     1.6131   0.1943  -1.5539   H         1 1      0.0000
    16 C13      3.3295  -0.4133  -0.4387   C.2       1 1      0.0000
    17 C14      4.0516   0.8367  -0.8496   C.3       1 1      0.0000
    18 H14B     3.6624   1.1742  -1.8165   H         1 1      0.0000
    19 H14A     5.1235   0.6505  -0.9623   H         1 1      0.0000
    20 N        3.9232  -1.3979   0.1690   N.pl3     1 1      0.0000
    21 HN       3.2848  -2.1874   0.4386   H         1 1      0.0000
    22 C        5.3739  -1.4938   0.5072   C.3       1 1      0.0000
    23 H1A      5.5095  -2.3926   1.1103   H         1 1      0.0000
    24 H1C      5.9650  -1.5787  -0.4103   H         1 1      0.0000
    25 H1B      5.6918  -0.6181   1.0782   H         1 1      0.0000
    26 H10A    -0.8978  -1.4361   0.5796   H         1 1      0.0000
    27 H10B    -0.7110  -0.6186  -0.9603   H         1 1      0.0000
    28 H9B     -1.4037   0.7848   1.6973   H         1 1      0.0000
    29 H5      -6.7224  -0.3499  -0.5137   H         1 1      0.0000
    30 H3      -3.3008  -0.8536   2.0472   H         1 1      0.0000
    31 H12B     1.6434  -1.5002  -1.1348   H         1 1      0.0000
    32 C15      3.8284   1.9711   0.2076   C.3       1 1      0.0000
    33 H15A     2.8538   2.4515   0.0764   H         1 1      0.0000
    34 H15B     3.8971   1.5844   1.2288   H         1 1      0.0000
    35 H15C     4.6035   2.7315   0.0740   H         1 1      0.0000
    36 O2       1.0163   1.0886   0.8606   O.3       1 1      0.0000
    37 H21      0.7953   1.1495   1.8268   H         1 1      0.0000
    38 H22      1.1411  -0.9023   1.2489   H         1 1      0.0000
@<TRIPOS>BOND
     1     1     2   ar
     2     1     6   ar
     3     1    29    1
     4     2     3   ar
     5     2     7    1
     6     3     4   ar
     7     3    30    1
     8     4     5   ar
     9     4     8    1
    10     5     6   ar
    11     5     9    1
    12     6    10    1
    13     8    11    1
    14     8    12    1
    15     8    28    1
    16    11    13    1
    17    11    26    1
    18    11    27    1
    19    13    14    1
    20    14    15    1
    21    14    16    1
    22    14    31    1
    23    16    17    1
    24    16    20    2
    25    17    18    1
    26    17    19    1
    27    17    32    1
    28    20    21    1
    29    20    22    1
    30    22    23    1
    31    22    24    1
    32    22    25    1
    33    32    33    1
    34    32    34    1
    35    32    35    1
    36    13    36    1
    37    36    37    1
    38    13    38    1
@<TRIPOS>SUBSTRUCTURE
     1 1           1 GROUP             0 ****  ****    0  
@<TRIPOS>MOLECULE
Molecule Name_00001_00289
    38    38     1     0     0
SMALL
NO_CHARGES
****
Generated from the CSD

@<TRIPOS>ATOM
     1 C5      -5.6061  -0.0313   0.0405   C.ar      1 1      0.0000
     2 C4      -5.0665  -0.4057   1.2763   C.ar      1 1      0.0000
     3 C3      -3.6810  -0.3900   1.4693   C.ar      1 1      0.0000
     4 C8      -2.8210  -0.0006   0.4306   C.ar      1 1      0.0000
     5 C7      -3.3699   0.3655  -0.8078   C.ar      1 1      0.0000
     6 C6      -4.7554   0.3498  -1.0030   C.ar      1 1      0.0000
     7 H4      -5.7221  -0.7158   2.0837   H         1 1      0.0000
     8 C9      -1.3218   0.0853   0.6649   C.3       1 1      0.0000
     9 H7      -2.7132   0.6500  -1.6269   H         1 1      0.0000
    10 H6      -5.1690   0.6271  -1.9672   H         1 1      0.0000
    11 C10     -0.6080   0.5313  -0.6345   C.3       1 1      0.0000
    12 H9A     -1.0989   0.7999   1.4650   H         1 1      0.0000
    13 C11      0.8844   0.6453  -0.5002   C.3       1 1      0.0000
    14 C12      1.6587  -0.6707  -0.3156   C.3       1 1      0.0000
    15 H12A     1.5503  -1.2809  -1.2234   H         1 1      0.0000
    16 C13      3.1279  -0.5954   0.0415   C.2       1 1      0.0000
    17 C14      3.9380   0.5084  -0.5737   C.3       1 1      0.0000
    18 H14B     3.6272   0.6432  -1.6157   H         1 1      0.0000
    19 H14A     5.0036   0.2624  -0.5671   H         1 1      0.0000
    20 N        3.6351  -1.4567   0.8734   N.pl3     1 1      0.0000
    21 HN       2.9412  -2.1437   1.2608   H         1 1      0.0000
    22 C        5.0595  -1.5436   1.3109   C.3       1 1      0.0000
    23 H1A      5.1149  -2.3019   2.0931   H         1 1      0.0000
    24 H1C      5.6900  -1.8440   0.4678   H         1 1      0.0000
    25 H1B      5.3967  -0.5829   1.7075   H         1 1      0.0000
    26 H10A    -0.8351  -0.1734  -1.4507   H         1 1      0.0000
    27 H10B    -1.0062   1.5033  -0.9669   H         1 1      0.0000
    28 H9B     -0.9266  -0.8861   0.9816   H         1 1      0.0000
    29 H5      -6.6803  -0.0467  -0.1114   H         1 1      0.0000
    30 H3      -3.2668  -0.6961   2.4274   H         1 1      0.0000
    31 H12B     1.1549  -1.2484   0.4768   H         1 1      0.0000
    32 C15      3.7088   1.8520   0.1987   C.3       1 1      0.0000
    33 H15A     3.0011   2.4989  -0.3289   H         1 1      0.0000
    34 H15B     3.3356   1.6719   1.2113   H         1 1      0.0000
    35 H15C     4.6638   2.3807   0.2722   H         1 1      0.0000
    36 O2       1.3841   1.2950  -1.6524   O.3       1 1      0.0000
    37 H21      0.9783   2.1984  -1.7252   H         1 1      0.0000
    38 H22      1.0950   1.2802   0.3591   H         1 1      0.0000
@<TRIPOS>BOND
     1     1     2   ar
     2     1     6   ar
     3     1    29    1
     4     2     3   ar
     5     2     7    1
     6     3     4   ar
     7     3    30    1
     8     4     5   ar
     9     4     8    1
    10     5     6   ar
    11     5     9    1
    12     6    10    1
    13     8    11    1
    14     8    12    1
    15     8    28    1
    16    11    13    1
    17    11    26    1
    18    11    27    1
    19    13    14    1
    20    14    15    1
    21    14    16    1
    22    14    31    1
    23    16    17    1
    24    16    20    2
    25    17    18    1
    26    17    19    1
    27    17    32    1
    28    20    21    1
    29    20    22    1
    30    22    23    1
    31    22    24    1
    32    22    25    1
    33    32    33    1
    34    32    34    1
    35    32    35    1
    36    13    36    1
    37    36    37    1
    38    13    38    1
@<TRIPOS>SUBSTRUCTURE
     1 1           1 GROUP             0 ****  ****    0  
@<TRIPOS>MOLECULE
Molecule Name_00001_00290
    38    38     1     0     0
SMALL
NO_CHARGES
****
Generated from the CSD

@<TRIPOS>ATOM
     1 C5      -5.6427   0.3128   0.4681   C.ar      1 1      0.0000
     2 C4      -4.8375   1.3663   0.9157   C.ar      1 1      0.0000
     3 C3      -3.4804   1.4030   0.5780   C.ar      1 1      0.0000
     4 C8      -2.9142   0.3884  -0.2095   C.ar      1 1      0.0000
     5 C7      -3.7268  -0.6684  -0.6474   C.ar      1 1      0.0000
     6 C6      -5.0842  -0.7073  -0.3100   C.ar      1 1      0.0000
     7 H4      -5.2636   2.1518   1.5315   H         1 1      0.0000
     8 C9      -1.4574   0.4682  -0.6354   C.3       1 1      0.0000
     9 H7      -3.2956  -1.4711  -1.2414   H         1 1      0.0000
    10 H6      -5.7019  -1.5334  -0.6471   H         1 1      0.0000
    11 C10     -0.6641  -0.7163  -0.0316   C.3       1 1      0.0000
    12 H9A     -1.3750   0.4410  -1.7276   H         1 1      0.0000
    13 C11      0.7930  -0.7226  -0.3989   C.3       1 1      0.0000
    14 C12      1.7709  -0.1971   0.6655   C.3       1 1      0.0000
    15 H12A     1.7014  -0.8315   1.5605   H         1 1      0.0000
    16 C13      3.2302  -0.0513   0.2906   C.2       1 1      0.0000
    17 C14      3.6078   1.0927  -0.6047   C.3       1 1      0.0000
    18 H14B     2.8297   1.2252  -1.3646   H         1 1      0.0000
    19 H14A     4.5524   0.8926  -1.1184   H         1 1      0.0000
    20 N        4.1051  -0.8896   0.7631   N.pl3     1 1      0.0000
    21 HN       3.7051  -1.6109   1.4136   H         1 1      0.0000
    22 C        5.5697  -0.9082   0.4758   C.3       1 1      0.0000
    23 H1A      6.0189  -1.6654   1.1199   H         1 1      0.0000
    24 H1C      5.7400  -1.1747  -0.5723   H         1 1      0.0000
    25 H1B      6.0139   0.0665   0.6917   H         1 1      0.0000
    26 H10A    -0.7500  -0.7070   1.0670   H         1 1      0.0000
    27 H10B    -1.1116  -1.6704  -0.3527   H         1 1      0.0000
    28 H9B     -1.0113   1.4118  -0.3023   H         1 1      0.0000
    29 H5      -6.6945   0.2814   0.7326   H         1 1      0.0000
    30 H3      -2.8564   2.2167   0.9411   H         1 1      0.0000
    31 H12B     1.4124   0.7933   0.9910   H         1 1      0.0000
    32 C15      3.7352   2.4169   0.2226   C.3       1 1      0.0000
    33 H15A     2.7887   2.6766   0.7069   H         1 1      0.0000
    34 H15B     4.5131   2.3365   0.9879   H         1 1      0.0000
    35 H15C     4.0038   3.2303  -0.4578   H         1 1      0.0000
    36 O2       1.1620  -2.0486  -0.7228   O.3       1 1      0.0000
    37 H21      0.6159  -2.3665  -1.4889   H         1 1      0.0000
    38 H22      0.9146  -0.1140  -1.2938   H         1 1      0.0000
@<TRIPOS>BOND
     1     1     2   ar
     2     1     6   ar
     3     1    29    1
     4     2     3   ar
     5     2     7    1
     6     3     4   ar
     7     3    30    1
     8     4     5   ar
     9     4     8    1
    10     5     6   ar
    11     5     9    1
    12     6    10    1
    13     8    11    1
    14     8    12    1
    15     8    28    1
    16    11    13    1
    17    11    26    1
    18    11    27    1
    19    13    14    1
    20    14    15    1
    21    14    16    1
    22    14    31    1
    23    16    17    1
    24    16    20    2
    25    17    18    1
    26    17    19    1
    27    17    32    1
    28    20    21    1
    29    20    22    1
    30    22    23    1
    31    22    24    1
    32    22    25    1
    33    32    33    1
    34    32    34    1
    35    32    35    1
    36    13    36    1
    37    36    37    1
    38    13    38    1
@<TRIPOS>SUBSTRUCTURE
     1 1           1 GROUP             0 ****  ****    0  
@<TRIPOS>MOLECULE
Molecule Name_00001_00291
    38    38     1     0     0
SMALL
NO_CHARGES
****
Generated from the CSD

@<TRIPOS>ATOM
     1 C5      -5.6555   0.0794   0.3248   C.ar      1 1      0.0000
     2 C4      -4.9231   0.8018   1.2736   C.ar      1 1      0.0000
     3 C3      -3.5499   1.0007   1.0952   C.ar      1 1      0.0000
     4 C8      -2.8948   0.4803  -0.0318   C.ar      1 1      0.0000
     5 C7      -3.6351  -0.2497  -0.9741   C.ar      1 1      0.0000
     6 C6      -5.0085  -0.4503  -0.7970   C.ar      1 1      0.0000
     7 H4      -5.4184   1.2020   2.1524   H         1 1      0.0000
     8 C9      -1.4183   0.7593  -0.2600   C.3       1 1      0.0000
     9 H7      -3.1354  -0.6753  -1.8414   H         1 1      0.0000
    10 H6      -5.5701  -1.0233  -1.5278   H         1 1      0.0000
    11 C10     -0.6182  -0.5657  -0.2260   C.3       1 1      0.0000
    12 H9A     -1.2657   1.2505  -1.2274   H         1 1      0.0000
    13 C11      0.8584  -0.3903  -0.4432   C.3       1 1      0.0000
    14 C12      1.7450  -0.4234   0.8131   C.3       1 1      0.0000
    15 H12A     1.6443  -1.4051   1.2972   H         1 1      0.0000
    16 C13      3.2182  -0.1103   0.6609   C.2       1 1      0.0000
    17 C14      3.6058   1.3228   0.4391   C.3       1 1      0.0000
    18 H14B     4.6473   1.4645   0.7486   H         1 1      0.0000
    19 H14A     2.9810   1.9941   1.0350   H         1 1      0.0000
    20 N        4.0942  -1.0675   0.7480   N.pl3     1 1      0.0000
    21 HN       3.6829  -2.0125   0.9515   H         1 1      0.0000
    22 C        5.5736  -0.9407   0.5961   C.3       1 1      0.0000
    23 H1A      6.0109  -1.9097   0.8404   H         1 1      0.0000
    24 H1C      5.8205  -0.6806  -0.4383   H         1 1      0.0000
    25 H1B      5.9639  -0.1805   1.2771   H         1 1      0.0000
    26 H10A    -0.7738  -1.0759   0.7383   H         1 1      0.0000
    27 H10B    -1.0059  -1.2582  -0.9901   H         1 1      0.0000
    28 H9B     -1.0322   1.4368   0.5095   H         1 1      0.0000
    29 H5      -6.7199  -0.0786   0.4641   H         1 1      0.0000
    30 H3      -2.9832   1.5506   1.8435   H         1 1      0.0000
    31 H12B     1.3273   0.2948   1.5379   H         1 1      0.0000
    32 C15      3.4748   1.6975  -1.0764   C.3       1 1      0.0000
    33 H15A     3.7320   0.8504  -1.7198   H         1 1      0.0000
    34 H15B     2.4612   2.0306  -1.3192   H         1 1      0.0000
    35 H15C     4.1681   2.5147  -1.2961   H         1 1      0.0000
    36 O2       1.2999  -1.4051  -1.3234   O.3       1 1      0.0000
    37 H21      0.8166  -1.3272  -2.1873   H         1 1      0.0000
    38 H22      1.0121   0.5689  -0.9353   H         1 1      0.0000
@<TRIPOS>BOND
     1     1     2   ar
     2     1     6   ar
     3     1    29    1
     4     2     3   ar
     5     2     7    1
     6     3     4   ar
     7     3    30    1
     8     4     5   ar
     9     4     8    1
    10     5     6   ar
    11     5     9    1
    12     6    10    1
    13     8    11    1
    14     8    12    1
    15     8    28    1
    16    11    13    1
    17    11    26    1
    18    11    27    1
    19    13    14    1
    20    14    15    1
    21    14    16    1
    22    14    31    1
    23    16    17    1
    24    16    20    2
    25    17    18    1
    26    17    19    1
    27    17    32    1
    28    20    21    1
    29    20    22    1
    30    22    23    1
    31    22    24    1
    32    22    25    1
    33    32    33    1
    34    32    34    1
    35    32    35    1
    36    13    36    1
    37    36    37    1
    38    13    38    1
@<TRIPOS>SUBSTRUCTURE
     1 1           1 GROUP             0 ****  ****    0  
@<TRIPOS>MOLECULE
Molecule Name_00001_00292
    38    38     1     0     0
SMALL
NO_CHARGES
****
Generated from the CSD

@<TRIPOS>ATOM
     1 C5      -5.6759   0.3139  -0.3489   C.ar      1 1      0.0000
     2 C4      -4.9397  -0.3127  -1.3607   C.ar      1 1      0.0000
     3 C3      -3.5957  -0.6387  -1.1495   C.ar      1 1      0.0000
     4 C8      -2.9739  -0.3421   0.0734   C.ar      1 1      0.0000
     5 C7      -3.7172   0.2936   1.0795   C.ar      1 1      0.0000
     6 C6      -5.0613   0.6211   0.8700   C.ar      1 1      0.0000
     7 H4      -5.4087  -0.5395  -2.3127   H         1 1      0.0000
     8 C9      -1.5354  -0.7623   0.3264   C.3       1 1      0.0000
     9 H7      -3.2414   0.5468   2.0244   H         1 1      0.0000
    10 H6      -5.6248   1.1198   1.6520   H         1 1      0.0000
    11 C10     -0.6474   0.4890   0.5326   C.3       1 1      0.0000
    12 H9A     -1.4730  -1.4018   1.2139   H         1 1      0.0000
    13 C11      0.7989   0.1726   0.7905   C.3       1 1      0.0000
    14 C12      1.7575   0.3250  -0.4026   C.3       1 1      0.0000
    15 H12A     1.7662   1.3762  -0.7235   H         1 1      0.0000
    16 C13      3.1886  -0.1402  -0.2379   C.2       1 1      0.0000
    17 C14      4.1002   0.6994   0.6089   C.3       1 1      0.0000
    18 H14B     4.9290   0.0788   0.9675   H         1 1      0.0000
    19 H14A     3.5711   1.0944   1.4808   H         1 1      0.0000
    20 N        3.5775  -1.2450  -0.8030   N.pl3     1 1      0.0000
    21 HN       2.8210  -1.7523  -1.3263   H         1 1      0.0000
    22 C        4.9495  -1.8317  -0.7668   C.3       1 1      0.0000
    23 H1A      4.8981  -2.8113  -1.2440   H         1 1      0.0000
    24 H1C      5.6425  -1.1921  -1.3229   H         1 1      0.0000
    25 H1B      5.2898  -1.9444   0.2654   H         1 1      0.0000
    26 H10A    -0.7118   1.1469  -0.3491   H         1 1      0.0000
    27 H10B    -1.0315   1.0876   1.3739   H         1 1      0.0000
    28 H9B     -1.1516  -1.3452  -0.5181   H         1 1      0.0000
    29 H5      -6.7174   0.5706  -0.5129   H         1 1      0.0000
    30 H3      -3.0246  -1.1125  -1.9450   H         1 1      0.0000
    31 H12B     1.3257  -0.2280  -1.2530   H         1 1      0.0000
    32 C15      4.6853   1.8876  -0.2278   C.3       1 1      0.0000
    33 H15A     5.2688   1.5253  -1.0799   H         1 1      0.0000
    34 H15B     3.8922   2.5450  -0.5966   H         1 1      0.0000
    35 H15C     5.3488   2.4744   0.4142   H         1 1      0.0000
    36 O2       1.2556   1.0093   1.8349   O.3       1 1      0.0000
    37 H21      0.7185   0.8407   2.6529   H         1 1      0.0000
    38 H22      0.8587  -0.8578   1.1375   H         1 1      0.0000
@<TRIPOS>BOND
     1     1     2   ar
     2     1     6   ar
     3     1    29    1
     4     2     3   ar
     5     2     7    1
     6     3     4   ar
     7     3    30    1
     8     4     5   ar
     9     4     8    1
    10     5     6   ar
    11     5     9    1
    12     6    10    1
    13     8    11    1
    14     8    12    1
    15     8    28    1
    16    11    13    1
    17    11    26    1
    18    11    27    1
    19    13    14    1
    20    14    15    1
    21    14    16    1
    22    14    31    1
    23    16    17    1
    24    16    20    2
    25    17    18    1
    26    17    19    1
    27    17    32    1
    28    20    21    1
    29    20    22    1
    30    22    23    1
    31    22    24    1
    32    22    25    1
    33    32    33    1
    34    32    34    1
    35    32    35    1
    36    13    36    1
    37    36    37    1
    38    13    38    1
@<TRIPOS>SUBSTRUCTURE
     1 1           1 GROUP             0 ****  ****    0  
@<TRIPOS>MOLECULE
Molecule Name_00001_00293
    38    38     1     0     0
SMALL
NO_CHARGES
****
Generated from the CSD

@<TRIPOS>ATOM
     1 C5      -5.4589   0.7715  -0.2486   C.ar      1 1      0.0000
     2 C4      -4.3714   1.6044   0.0384   C.ar      1 1      0.0000
     3 C3      -3.0726   1.0845   0.0411   C.ar      1 1      0.0000
     4 C8      -2.8471  -0.2715  -0.2423   C.ar      1 1      0.0000
     5 C7      -3.9437  -1.1014  -0.5210   C.ar      1 1      0.0000
     6 C6      -5.2435  -0.5834  -0.5235   C.ar      1 1      0.0000
     7 H4      -4.5355   2.6526   0.2664   H         1 1      0.0000
     8 C9      -1.4303  -0.8176  -0.3100   C.3       1 1      0.0000
     9 H7      -3.7840  -2.1583  -0.7225   H         1 1      0.0000
    10 H6      -6.0853  -1.2357  -0.7324   H         1 1      0.0000
    11 C10     -0.6934  -0.5432   1.0236   C.3       1 1      0.0000
    12 H9A     -1.4437  -1.8962  -0.5020   H         1 1      0.0000
    13 C11      0.7971  -0.7164   0.9417   C.3       1 1      0.0000
    14 C12      1.5626   0.3187   0.1003   C.3       1 1      0.0000
    15 H12A     1.4168   1.3159   0.5390   H         1 1      0.0000
    16 C13      3.0437   0.1047  -0.1282   C.2       1 1      0.0000
    17 C14      3.9995   0.9156   0.6976   C.3       1 1      0.0000
    18 H14B     4.9653   0.3997   0.7380   H         1 1      0.0000
    19 H14A     3.6331   1.0292   1.7218   H         1 1      0.0000
    20 N        3.4422  -0.7750  -0.9991   N.pl3     1 1      0.0000
    21 HN       2.6639  -1.3010  -1.4693   H         1 1      0.0000
    22 C        4.8538  -1.0916  -1.3668   C.3       1 1      0.0000
    23 H1A      4.8310  -1.9500  -2.0394   H         1 1      0.0000
    24 H1C      5.3045  -0.2374  -1.8823   H         1 1      0.0000
    25 H1B      5.4343  -1.3402  -0.4751   H         1 1      0.0000
    26 H10A    -0.9101   0.4799   1.3709   H         1 1      0.0000
    27 H10B    -1.0817  -1.2087   1.8110   H         1 1      0.0000
    28 H9B     -0.8780  -0.3509  -1.1331   H         1 1      0.0000
    29 H5      -6.4670   1.1728  -0.2473   H         1 1      0.0000
    30 H3      -2.2328   1.7336   0.2793   H         1 1      0.0000
    31 H12B     1.0793   0.3704  -0.8893   H         1 1      0.0000
    32 C15      4.2103   2.3309   0.0598   C.3       1 1      0.0000
    33 H15A     4.6290   2.2550  -0.9484   H         1 1      0.0000
    34 H15B     3.2715   2.8908   0.0112   H         1 1      0.0000
    35 H15C     4.9150   2.8928   0.6798   H         1 1      0.0000
    36 O2       1.3185  -0.6914   2.2558   O.3       1 1      0.0000
    37 H21      0.9179  -1.4300   2.7850   H         1 1      0.0000
    38 H22      0.9964  -1.7014   0.5220   H         1 1      0.0000
@<TRIPOS>BOND
     1     1     2   ar
     2     1     6   ar
     3     1    29    1
     4     2     3   ar
     5     2     7    1
     6     3     4   ar
     7     3    30    1
     8     4     5   ar
     9     4     8    1
    10     5     6   ar
    11     5     9    1
    12     6    10    1
    13     8    11    1
    14     8    12    1
    15     8    28    1
    16    11    13    1
    17    11    26    1
    18    11    27    1
    19    13    14    1
    20    14    15    1
    21    14    16    1
    22    14    31    1
    23    16    17    1
    24    16    20    2
    25    17    18    1
    26    17    19    1
    27    17    32    1
    28    20    21    1
    29    20    22    1
    30    22    23    1
    31    22    24    1
    32    22    25    1
    33    32    33    1
    34    32    34    1
    35    32    35    1
    36    13    36    1
    37    36    37    1
    38    13    38    1
@<TRIPOS>SUBSTRUCTURE
     1 1           1 GROUP             0 ****  ****    0  
@<TRIPOS>MOLECULE
Molecule Name_00001_00294
    38    38     1     0     0
SMALL
NO_CHARGES
****
Generated from the CSD

@<TRIPOS>ATOM
     1 C5      -4.6382   1.0108   0.4174   C.ar      1 1      0.0000
     2 C4      -3.4604   1.5059   0.9887   C.ar      1 1      0.0000
     3 C3      -2.2212   0.9848   0.6015   C.ar      1 1      0.0000
     4 C8      -2.1460  -0.0356  -0.3594   C.ar      1 1      0.0000
     5 C7      -3.3321  -0.5319  -0.9212   C.ar      1 1      0.0000
     6 C6      -4.5725  -0.0124  -0.5347   C.ar      1 1      0.0000
     7 H4      -3.5079   2.2894   1.7381   H         1 1      0.0000
     8 C9      -0.7956  -0.5494  -0.8312   C.3       1 1      0.0000
     9 H7      -3.2885  -1.3363  -1.6521   H         1 1      0.0000
    10 H6      -5.4843  -0.4090  -0.9696   H         1 1      0.0000
    11 C10     -0.3011  -1.6767   0.1077   C.3       1 1      0.0000
    12 H9A     -0.8679  -0.9348  -1.8543   H         1 1      0.0000
    13 C11      1.1638  -1.9827  -0.0284   C.3       1 1      0.0000
    14 C12      2.1334  -1.0275   0.6879   C.3       1 1      0.0000
    15 H12A     3.1390  -1.4712   0.6880   H         1 1      0.0000
    16 C13      2.2359   0.3983   0.1897   C.2       1 1      0.0000
    17 C14      3.3534   0.7258  -0.7574   C.3       1 1      0.0000
    18 H14B     3.0846   1.6178  -1.3342   H         1 1      0.0000
    19 H14A     3.5233  -0.0940  -1.4611   H         1 1      0.0000
    20 N        1.3575   1.2793   0.5683   N.pl3     1 1      0.0000
    21 HN       0.6054   0.8981   1.1949   H         1 1      0.0000
    22 C        1.3256   2.7248   0.1977   C.3       1 1      0.0000
    23 H1A      0.3986   3.1426   0.5930   H         1 1      0.0000
    24 H1C      2.1788   3.2431   0.6470   H         1 1      0.0000
    25 H1B      1.3459   2.8413  -0.8886   H         1 1      0.0000
    26 H10A    -0.5093  -1.4123   1.1570   H         1 1      0.0000
    27 H10B    -0.8720  -2.5999  -0.0810   H         1 1      0.0000
    28 H9B     -0.0595   0.2619  -0.8441   H         1 1      0.0000
    29 H5      -5.6000   1.4117   0.7198   H         1 1      0.0000
    30 H3      -1.3103   1.3635   1.0598   H         1 1      0.0000
    31 H12B     1.8409  -0.9866   1.7501   H         1 1      0.0000
    32 C15      4.6744   1.0158   0.0332   C.3       1 1      0.0000
    33 H15A     4.5552   1.8684   0.7089   H         1 1      0.0000
    34 H15B     4.9906   0.1451   0.6156   H         1 1      0.0000
    35 H15C     5.4653   1.2571  -0.6831   H         1 1      0.0000
    36 O2       1.3899  -3.2906   0.4592   O.3       1 1      0.0000
    37 H21      0.8556  -3.9384  -0.0707   H         1 1      0.0000
    38 H22      1.4096  -1.9746  -1.0893   H         1 1      0.0000
@<TRIPOS>BOND
     1     1     2   ar
     2     1     6   ar
     3     1    29    1
     4     2     3   ar
     5     2     7    1
     6     3     4   ar
     7     3    30    1
     8     4     5   ar
     9     4     8    1
    10     5     6   ar
    11     5     9    1
    12     6    10    1
    13     8    11    1
    14     8    12    1
    15     8    28    1
    16    11    13    1
    17    11    26    1
    18    11    27    1
    19    13    14    1
    20    14    15    1
    21    14    16    1
    22    14    31    1
    23    16    17    1
    24    16    20    2
    25    17    18    1
    26    17    19    1
    27    17    32    1
    28    20    21    1
    29    20    22    1
    30    22    23    1
    31    22    24    1
    32    22    25    1
    33    32    33    1
    34    32    34    1
    35    32    35    1
    36    13    36    1
    37    36    37    1
    38    13    38    1
@<TRIPOS>SUBSTRUCTURE
     1 1           1 GROUP             0 ****  ****    0  
@<TRIPOS>MOLECULE
Molecule Name_00001_00295
    38    38     1     0     0
SMALL
NO_CHARGES
****
Generated from the CSD

@<TRIPOS>ATOM
     1 C5      -5.0063  -0.5726   1.1514   C.ar      1 1      0.0000
     2 C4      -4.4252   0.6194   1.5984   C.ar      1 1      0.0000
     3 C3      -3.2769   1.1165   0.9727   C.ar      1 1      0.0000
     4 C8      -2.6978   0.4283  -0.1048   C.ar      1 1      0.0000
     5 C7      -3.2821  -0.7704  -0.5414   C.ar      1 1      0.0000
     6 C6      -4.4302  -1.2695   0.0835   C.ar      1 1      0.0000
     7 H4      -4.8606   1.1554   2.4356   H         1 1      0.0000
     8 C9      -1.4935   1.0074  -0.8290   C.3       1 1      0.0000
     9 H7      -2.8313  -1.3235  -1.3624   H         1 1      0.0000
    10 H6      -4.8695  -2.2017  -0.2568   H         1 1      0.0000
    11 C10     -0.2747   0.0671  -0.6642   C.3       1 1      0.0000
    12 H9A     -1.7118   1.1350  -1.8951   H         1 1      0.0000
    13 C11      0.9694   0.5582  -1.3493   C.3       1 1      0.0000
    14 C12      2.2311  -0.3050  -1.1810   C.3       1 1      0.0000
    15 H12A     2.9938   0.0314  -1.8975   H         1 1      0.0000
    16 C13      2.8643  -0.3916   0.1913   C.2       1 1      0.0000
    17 C14      2.8171   0.8330   1.0580   C.3       1 1      0.0000
    18 H14B     2.9217   0.5341   2.1069   H         1 1      0.0000
    19 H14A     1.8618   1.3540   0.9479   H         1 1      0.0000
    20 N        3.4008  -1.5087   0.5855   N.pl3     1 1      0.0000
    21 HN       3.3199  -2.2949  -0.1065   H         1 1      0.0000
    22 C        4.0876  -1.7591   1.8869   C.3       1 1      0.0000
    23 H1A      4.3152  -2.8248   1.9359   H         1 1      0.0000
    24 H1C      5.0190  -1.1857   1.9325   H         1 1      0.0000
    25 H1B      3.4373  -1.4847   2.7211   H         1 1      0.0000
    26 H10A    -0.0528  -0.0792   0.4053   H         1 1      0.0000
    27 H10B    -0.5179  -0.9346  -1.0530   H         1 1      0.0000
    28 H9B     -1.2454   1.9972  -0.4305   H         1 1      0.0000
    29 H5      -5.8948  -0.9610   1.6383   H         1 1      0.0000
    30 H3      -2.8214   2.0359   1.3340   H         1 1      0.0000
    31 H12B     1.9799  -1.3316  -1.4948   H         1 1      0.0000
    32 C15      3.9874   1.8083   0.6926   C.3       1 1      0.0000
    33 H15A     4.9624   1.3350   0.8445   H         1 1      0.0000
    34 H15B     3.9166   2.1457  -0.3459   H         1 1      0.0000
    35 H15C     3.9291   2.6848   1.3446   H         1 1      0.0000
    36 O2       0.6958   0.6774  -2.7315   O.3       1 1      0.0000
    37 H21      0.0411   1.4096  -2.8774   H         1 1      0.0000
    38 H22      1.1915   1.5529  -0.9658   H         1 1      0.0000
@<TRIPOS>BOND
     1     1     2   ar
     2     1     6   ar
     3     1    29    1
     4     2     3   ar
     5     2     7    1
     6     3     4   ar
     7     3    30    1
     8     4     5   ar
     9     4     8    1
    10     5     6   ar
    11     5     9    1
    12     6    10    1
    13     8    11    1
    14     8    12    1
    15     8    28    1
    16    11    13    1
    17    11    26    1
    18    11    27    1
    19    13    14    1
    20    14    15    1
    21    14    16    1
    22    14    31    1
    23    16    17    1
    24    16    20    2
    25    17    18    1
    26    17    19    1
    27    17    32    1
    28    20    21    1
    29    20    22    1
    30    22    23    1
    31    22    24    1
    32    22    25    1
    33    32    33    1
    34    32    34    1
    35    32    35    1
    36    13    36    1
    37    36    37    1
    38    13    38    1
@<TRIPOS>SUBSTRUCTURE
     1 1           1 GROUP             0 ****  ****    0  
@<TRIPOS>MOLECULE
Molecule Name_00001_00296
    38    38     1     0     0
SMALL
NO_CHARGES
****
Generated from the CSD

@<TRIPOS>ATOM
     1 C5      -4.8007   1.4573   0.3622   C.ar      1 1      0.0000
     2 C4      -4.2188   1.5204  -0.9090   C.ar      1 1      0.0000
     3 C3      -3.1150   0.7170  -1.2147   C.ar      1 1      0.0000
     4 C8      -2.5816  -0.1567  -0.2544   C.ar      1 1      0.0000
     5 C7      -3.1661  -0.2077   1.0203   C.ar      1 1      0.0000
     6 C6      -4.2697   0.5955   1.3281   C.ar      1 1      0.0000
     7 H4      -4.6187   2.1981  -1.6564   H         1 1      0.0000
     8 C9      -1.4288  -1.0805  -0.6114   C.3       1 1      0.0000
     9 H7      -2.7496  -0.8659   1.7796   H         1 1      0.0000
    10 H6      -4.7091   0.5541   2.3196   H         1 1      0.0000
    11 C10     -0.1856  -0.7291   0.2417   C.3       1 1      0.0000
    12 H9A     -1.7061  -2.1258  -0.4352   H         1 1      0.0000
    13 C11      1.0107  -1.5931  -0.0419   C.3       1 1      0.0000
    14 C12      2.3015  -1.2488   0.7201   C.3       1 1      0.0000
    15 H12A     2.9917  -2.1021   0.6603   H         1 1      0.0000
    16 C13      3.0526   0.0065   0.3302   C.2       1 1      0.0000
    17 C14      3.1132   0.3565  -1.1281   C.3       1 1      0.0000
    18 H14B     3.2140  -0.5640  -1.7139   H         1 1      0.0000
    19 H14A     3.9779   0.9909  -1.3429   H         1 1      0.0000
    20 N        3.5946   0.7470   1.2516   N.pl3     1 1      0.0000
    21 HN       3.4328   0.4051   2.2316   H         1 1      0.0000
    22 C        4.3887   1.9936   1.0429   C.3       1 1      0.0000
    23 H1A      4.5936   2.4184   2.0265   H         1 1      0.0000
    24 H1C      5.3343   1.7536   0.5462   H         1 1      0.0000
    25 H1B      3.8226   2.7115   0.4445   H         1 1      0.0000
    26 H10A     0.0957   0.3245   0.0827   H         1 1      0.0000
    27 H10B    -0.4305  -0.8088   1.3129   H         1 1      0.0000
    28 H9B     -1.1782  -0.9886  -1.6739   H         1 1      0.0000
    29 H5      -5.6545   2.0827   0.6015   H         1 1      0.0000
    30 H3      -2.6580   0.7812  -2.1997   H         1 1      0.0000
    31 H12B     2.0475  -1.1635   1.7895   H         1 1      0.0000
    32 C15      1.8035   1.0941  -1.5695   C.3       1 1      0.0000
    33 H15A     1.0053   0.3829  -1.8033   H         1 1      0.0000
    34 H15B     1.4499   1.7791  -0.7929   H         1 1      0.0000
    35 H15C     2.0162   1.6757  -2.4713   H         1 1      0.0000
    36 O2       0.6681  -2.9334   0.2507   O.3       1 1      0.0000
    37 H21     -0.0235  -3.2457  -0.3897   H         1 1      0.0000
    38 H22      1.2246  -1.5281  -1.1078   H         1 1      0.0000
@<TRIPOS>BOND
     1     1     2   ar
     2     1     6   ar
     3     1    29    1
     4     2     3   ar
     5     2     7    1
     6     3     4   ar
     7     3    30    1
     8     4     5   ar
     9     4     8    1
    10     5     6   ar
    11     5     9    1
    12     6    10    1
    13     8    11    1
    14     8    12    1
    15     8    28    1
    16    11    13    1
    17    11    26    1
    18    11    27    1
    19    13    14    1
    20    14    15    1
    21    14    16    1
    22    14    31    1
    23    16    17    1
    24    16    20    2
    25    17    18    1
    26    17    19    1
    27    17    32    1
    28    20    21    1
    29    20    22    1
    30    22    23    1
    31    22    24    1
    32    22    25    1
    33    32    33    1
    34    32    34    1
    35    32    35    1
    36    13    36    1
    37    36    37    1
    38    13    38    1
@<TRIPOS>SUBSTRUCTURE
     1 1           1 GROUP             0 ****  ****    0  
@<TRIPOS>MOLECULE
Molecule Name_00001_00297
    38    38     1     0     0
SMALL
NO_CHARGES
****
Generated from the CSD

@<TRIPOS>ATOM
     1 C5      -5.6336   0.5746   0.5056   C.ar      1 1      0.0000
     2 C4      -5.4397  -0.6732  -0.0976   C.ar      1 1      0.0000
     3 C3      -4.1523  -1.0835  -0.4600   C.ar      1 1      0.0000
     4 C8      -3.0464  -0.2520  -0.2240   C.ar      1 1      0.0000
     5 C7      -3.2507   1.0009   0.3738   C.ar      1 1      0.0000
     6 C6      -4.5376   1.4133   0.7364   C.ar      1 1      0.0000
     7 H4      -6.2889  -1.3206  -0.2915   H         1 1      0.0000
     8 C9      -1.6413  -0.7297  -0.5521   C.3       1 1      0.0000
     9 H7      -2.4044   1.6628   0.5438   H         1 1      0.0000
    10 H6      -4.6855   2.3876   1.1908   H         1 1      0.0000
    11 C10     -0.6125   0.3728  -0.2018   C.3       1 1      0.0000
    12 H9A     -1.4042  -1.6394   0.0108   H         1 1      0.0000
    13 C11      0.8111  -0.0079  -0.4963   C.3       1 1      0.0000
    14 C12      1.8403   0.2780   0.6102   C.3       1 1      0.0000
    15 H12A     1.5723  -0.2986   1.5068   H         1 1      0.0000
    16 C13      3.3048   0.0437   0.3067   C.2       1 1      0.0000
    17 C14      3.9992   1.0360  -0.5798   C.3       1 1      0.0000
    18 H14B     3.3151   1.3432  -1.3787   H         1 1      0.0000
    19 H14A     4.8851   0.5935  -1.0441   H         1 1      0.0000
    20 N        3.9174  -0.9770   0.8302   N.pl3     1 1      0.0000
    21 HN       3.3191  -1.5601   1.4672   H         1 1      0.0000
    22 C        5.3414  -1.3698   0.6162   C.3       1 1      0.0000
    23 H1A      5.5552  -2.2013   1.2892   H         1 1      0.0000
    24 H1C      5.4865  -1.6935  -0.4195   H         1 1      0.0000
    25 H1B      6.0068  -0.5336   0.8443   H         1 1      0.0000
    26 H10A    -0.8498   1.2985  -0.7506   H         1 1      0.0000
    27 H10B    -0.6924   0.6357   0.8651   H         1 1      0.0000
    28 H9B     -1.5592  -0.9788  -1.6158   H         1 1      0.0000
    29 H5      -6.6322   0.8954   0.7837   H         1 1      0.0000
    30 H3      -4.0097  -2.0483  -0.9418   H         1 1      0.0000
    31 H12B     1.7289   1.3337   0.9078   H         1 1      0.0000
    32 C15      4.4187   2.3035   0.2398   C.3       1 1      0.0000
    33 H15A     3.5474   2.8035   0.6739   H         1 1      0.0000
    34 H15B     5.1155   2.0468   1.0434   H         1 1      0.0000
    35 H15C     4.9146   3.0080  -0.4344   H         1 1      0.0000
    36 O2       0.8479  -1.3909  -0.7885   O.3       1 1      0.0000
    37 H21      0.5424  -1.5404  -1.7214   H         1 1      0.0000
    38 H22      1.1229   0.5307  -1.3899   H         1 1      0.0000
@<TRIPOS>BOND
     1     1     2   ar
     2     1     6   ar
     3     1    29    1
     4     2     3   ar
     5     2     7    1
     6     3     4   ar
     7     3    30    1
     8     4     5   ar
     9     4     8    1
    10     5     6   ar
    11     5     9    1
    12     6    10    1
    13     8    11    1
    14     8    12    1
    15     8    28    1
    16    11    13    1
    17    11    26    1
    18    11    27    1
    19    13    14    1
    20    14    15    1
    21    14    16    1
    22    14    31    1
    23    16    17    1
    24    16    20    2
    25    17    18    1
    26    17    19    1
    27    17    32    1
    28    20    21    1
    29    20    22    1
    30    22    23    1
    31    22    24    1
    32    22    25    1
    33    32    33    1
    34    32    34    1
    35    32    35    1
    36    13    36    1
    37    36    37    1
    38    13    38    1
@<TRIPOS>SUBSTRUCTURE
     1 1           1 GROUP             0 ****  ****    0  
@<TRIPOS>MOLECULE
Molecule Name_00001_00298
    38    38     1     0     0
SMALL
NO_CHARGES
****
Generated from the CSD

@<TRIPOS>ATOM
     1 C5      -5.6345   0.3296   0.5180   C.ar      1 1      0.0000
     2 C4      -5.3663  -0.5515  -0.5357   C.ar      1 1      0.0000
     3 C3      -4.0478  -0.7644  -0.9523   C.ar      1 1      0.0000
     4 C8      -2.9848  -0.0997  -0.3213   C.ar      1 1      0.0000
     5 C7      -3.2632   0.7882   0.7289   C.ar      1 1      0.0000
     6 C6      -4.5813   1.0030   1.1466   C.ar      1 1      0.0000
     7 H4      -6.1815  -1.0647  -1.0355   H         1 1      0.0000
     8 C9      -1.5487  -0.3875  -0.7272   C.3       1 1      0.0000
     9 H7      -2.4500   1.3246   1.2128   H         1 1      0.0000
    10 H6      -4.7862   1.6980   1.9545   H         1 1      0.0000
    11 C10     -0.5779   0.4755   0.1152   C.3       1 1      0.0000
    12 H9A     -1.3133  -1.4473  -0.5796   H         1 1      0.0000
    13 C11      0.8717   0.2621  -0.2188   C.3       1 1      0.0000
    14 C12      1.8279   0.0675   0.9700   C.3       1 1      0.0000
    15 H12A     1.5297  -0.8324   1.5264   H         1 1      0.0000
    16 C13      3.3139  -0.0088   0.6914   C.2       1 1      0.0000
    17 C14      4.0233   1.2676   0.3444   C.3       1 1      0.0000
    18 H14B     5.0902   1.1569   0.5681   H         1 1      0.0000
    19 H14A     3.6381   2.1029   0.9361   H         1 1      0.0000
    20 N        3.9298  -1.1507   0.7811   N.pl3     1 1      0.0000
    21 HN       3.3166  -1.9503   1.0780   H         1 1      0.0000
    22 C        5.3757  -1.4086   0.5151   C.3       1 1      0.0000
    23 H1A      5.5791  -2.4436   0.7935   H         1 1      0.0000
    24 H1C      5.5887  -1.2698  -0.5497   H         1 1      0.0000
    25 H1B      5.9995  -0.7393   1.1126   H         1 1      0.0000
    26 H10A    -0.8147   1.5441  -0.0129   H         1 1      0.0000
    27 H10B    -0.7256   0.2688   1.1872   H         1 1      0.0000
    28 H9B     -1.3993  -0.1696  -1.7904   H         1 1      0.0000
    29 H5      -6.6570   0.4983   0.8394   H         1 1      0.0000
    30 H3      -3.8469  -1.4393  -1.7815   H         1 1      0.0000
    31 H12B     1.6653   0.9021   1.6717   H         1 1      0.0000
    32 C15      3.8584   1.5892  -1.1799   C.3       1 1      0.0000
    33 H15A     3.8497   0.6748  -1.7812   H         1 1      0.0000
    34 H15B     2.9375   2.1477  -1.3729   H         1 1      0.0000
    35 H15C     4.7063   2.2006  -1.5024   H         1 1      0.0000
    36 O2       0.9704  -0.8727  -1.0566   O.3       1 1      0.0000
    37 H21      0.9952  -0.5822  -2.0058   H         1 1      0.0000
    38 H22      1.2147   1.1265  -0.7854   H         1 1      0.0000
@<TRIPOS>BOND
     1     1     2   ar
     2     1     6   ar
     3     1    29    1
     4     2     3   ar
     5     2     7    1
     6     3     4   ar
     7     3    30    1
     8     4     5   ar
     9     4     8    1
    10     5     6   ar
    11     5     9    1
    12     6    10    1
    13     8    11    1
    14     8    12    1
    15     8    28    1
    16    11    13    1
    17    11    26    1
    18    11    27    1
    19    13    14    1
    20    14    15    1
    21    14    16    1
    22    14    31    1
    23    16    17    1
    24    16    20    2
    25    17    18    1
    26    17    19    1
    27    17    32    1
    28    20    21    1
    29    20    22    1
    30    22    23    1
    31    22    24    1
    32    22    25    1
    33    32    33    1
    34    32    34    1
    35    32    35    1
    36    13    36    1
    37    36    37    1
    38    13    38    1
@<TRIPOS>SUBSTRUCTURE
     1 1           1 GROUP             0 ****  ****    0  
@<TRIPOS>MOLECULE
Molecule Name_00001_00299
    38    38     1     0     0
SMALL
NO_CHARGES
****
Generated from the CSD

@<TRIPOS>ATOM
     1 C5      -5.6459   0.2215  -0.5548   C.ar      1 1      0.0000
     2 C4      -5.3829   0.6549   0.7496   C.ar      1 1      0.0000
     3 C3      -4.0804   0.5983   1.2572   C.ar      1 1      0.0000
     4 C8      -3.0284   0.1085   0.4677   C.ar      1 1      0.0000
     5 C7      -3.3023  -0.3314  -0.8363   C.ar      1 1      0.0000
     6 C6      -4.6043  -0.2763  -1.3455   C.ar      1 1      0.0000
     7 H4      -6.1904   1.0282   1.3711   H         1 1      0.0000
     8 C9      -1.6031   0.1157   0.9954   C.3       1 1      0.0000
     9 H7      -2.4993  -0.7318  -1.4512   H         1 1      0.0000
    10 H6      -4.8066  -0.6267  -2.3525   H         1 1      0.0000
    11 C10     -0.6435  -0.4778  -0.0646   C.3       1 1      0.0000
    12 H9A     -1.2890   1.1370   1.2379   H         1 1      0.0000
    13 C11      0.7944  -0.5160   0.3701   C.3       1 1      0.0000
    14 C12      1.8309  -0.0001  -0.6424   C.3       1 1      0.0000
    15 H12A     1.6391   1.0638  -0.8413   H         1 1      0.0000
    16 C13      3.2994  -0.1724  -0.3178   C.2       1 1      0.0000
    17 C14      3.8864   0.7131   0.7425   C.3       1 1      0.0000
    18 H14B     4.7847   0.2367   1.1506   H         1 1      0.0000
    19 H14A     3.1794   0.8621   1.5636   H         1 1      0.0000
    20 N        3.9951  -1.0806  -0.9363   N.pl3     1 1      0.0000
    21 HN       3.4431  -1.6573  -1.6191   H         1 1      0.0000
    22 C        5.4498  -1.3649  -0.7601   C.3       1 1      0.0000
    23 H1A      5.6809  -2.2568  -1.3441   H         1 1      0.0000
    24 H1C      6.0414  -0.5226  -1.1329   H         1 1      0.0000
    25 H1B      5.6788  -1.5469   0.2927   H         1 1      0.0000
    26 H10A    -0.9586  -1.5004  -0.3284   H         1 1      0.0000
    27 H10B    -0.7127   0.1008  -0.9996   H         1 1      0.0000
    28 H9B     -1.5326  -0.4705   1.9182   H         1 1      0.0000
    29 H5      -6.6563   0.2615  -0.9482   H         1 1      0.0000
    30 H3      -3.8848   0.9229   2.2769   H         1 1      0.0000
    31 H12B     1.6427  -0.5070  -1.6032   H         1 1      0.0000
    32 C15      4.2830   2.1028   0.1380   C.3       1 1      0.0000
    33 H15A     5.0326   1.9942  -0.6520   H         1 1      0.0000
    34 H15B     3.4119   2.6238  -0.2708   H         1 1      0.0000
    35 H15C     4.7125   2.7204   0.9323   H         1 1      0.0000
    36 O2       0.9185   0.2435   1.5564   O.3       1 1      0.0000
    37 H21      0.5824  -0.2869   2.3256   H         1 1      0.0000
    38 H22      1.0445  -1.5490   0.6071   H         1 1      0.0000
@<TRIPOS>BOND
     1     1     2   ar
     2     1     6   ar
     3     1    29    1
     4     2     3   ar
     5     2     7    1
     6     3     4   ar
     7     3    30    1
     8     4     5   ar
     9     4     8    1
    10     5     6   ar
    11     5     9    1
    12     6    10    1
    13     8    11    1
    14     8    12    1
    15     8    28    1
    16    11    13    1
    17    11    26    1
    18    11    27    1
    19    13    14    1
    20    14    15    1
    21    14    16    1
    22    14    31    1
    23    16    17    1
    24    16    20    2
    25    17    18    1
    26    17    19    1
    27    17    32    1
    28    20    21    1
    29    20    22    1
    30    22    23    1
    31    22    24    1
    32    22    25    1
    33    32    33    1
    34    32    34    1
    35    32    35    1
    36    13    36    1
    37    36    37    1
    38    13    38    1
@<TRIPOS>SUBSTRUCTURE
     1 1           1 GROUP             0 ****  ****    0  
@<TRIPOS>MOLECULE
Molecule Name_00001_00300
    38    38     1     0     0
SMALL
NO_CHARGES
****
Generated from the CSD

@<TRIPOS>ATOM
     1 C5      -4.8243   0.6204  -0.7570   C.ar      1 1      0.0000
     2 C4      -4.0382   0.0513  -1.7654   C.ar      1 1      0.0000
     3 C3      -2.7149  -0.3158  -1.4986   C.ar      1 1      0.0000
     4 C8      -2.1637  -0.1181  -0.2230   C.ar      1 1      0.0000
     5 C7      -2.9563   0.4605   0.7800   C.ar      1 1      0.0000
     6 C6      -4.2798   0.8290   0.5149   C.ar      1 1      0.0000
     7 H4      -4.4522  -0.0988  -2.7572   H         1 1      0.0000
     8 C9      -0.7500  -0.5839   0.0844   C.3       1 1      0.0000
     9 H7      -2.5346   0.6374   1.7670   H         1 1      0.0000
    10 H6      -4.8816   1.2831   1.2956   H         1 1      0.0000
    11 C10     -0.3880  -0.2436   1.5507   C.3       1 1      0.0000
    12 H9A     -0.6602  -1.6649  -0.0700   H         1 1      0.0000
    13 C11      0.9892  -0.6877   1.9560   C.3       1 1      0.0000
    14 C12      2.1666   0.1138   1.3758   C.3       1 1      0.0000
    15 H12A     3.0828  -0.1471   1.9242   H         1 1      0.0000
    16 C13      2.4464   0.0067  -0.1081   C.2       1 1      0.0000
    17 C14      2.0872   1.1814  -0.9706   C.3       1 1      0.0000
    18 H14B     1.1410   1.6079  -0.6196   H         1 1      0.0000
    19 H14A     1.9553   0.8762  -2.0126   H         1 1      0.0000
    20 N        3.0013  -1.0687  -0.5845   N.pl3     1 1      0.0000
    21 HN       3.2401  -1.7897   0.1412   H         1 1      0.0000
    22 C        3.3199  -1.3503  -2.0153   C.3       1 1      0.0000
    23 H1A      3.8788  -2.2865  -2.0469   H         1 1      0.0000
    24 H1C      2.3935  -1.4602  -2.5881   H         1 1      0.0000
    25 H1B      3.9280  -0.5462  -2.4367   H         1 1      0.0000
    26 H10A    -0.4708   0.8425   1.7175   H         1 1      0.0000
    27 H10B    -1.1204  -0.7020   2.2343   H         1 1      0.0000
    28 H9B     -0.0322  -0.1018  -0.5883   H         1 1      0.0000
    29 H5      -5.8496   0.9089  -0.9639   H         1 1      0.0000
    30 H3      -2.1043  -0.7441  -2.2904   H         1 1      0.0000
    31 H12B     1.9927   1.1784   1.6036   H         1 1      0.0000
    32 C15      3.1984   2.2826  -0.8871   C.3       1 1      0.0000
    33 H15A     3.3183   2.6505   0.1366   H         1 1      0.0000
    34 H15B     4.1622   1.9052  -1.2420   H         1 1      0.0000
    35 H15C     2.9042   3.1254  -1.5195   H         1 1      0.0000
    36 O2       1.0728  -0.6387   3.3667   O.3       1 1      0.0000
    37 H21      0.3902  -1.2432   3.7599   H         1 1      0.0000
    38 H22      1.1089  -1.7260   1.6501   H         1 1      0.0000
@<TRIPOS>BOND
     1     1     2   ar
     2     1     6   ar
     3     1    29    1
     4     2     3   ar
     5     2     7    1
     6     3     4   ar
     7     3    30    1
     8     4     5   ar
     9     4     8    1
    10     5     6   ar
    11     5     9    1
    12     6    10    1
    13     8    11    1
    14     8    12    1
    15     8    28    1
    16    11    13    1
    17    11    26    1
    18    11    27    1
    19    13    14    1
    20    14    15    1
    21    14    16    1
    22    14    31    1
    23    16    17    1
    24    16    20    2
    25    17    18    1
    26    17    19    1
    27    17    32    1
    28    20    21    1
    29    20    22    1
    30    22    23    1
    31    22    24    1
    32    22    25    1
    33    32    33    1
    34    32    34    1
    35    32    35    1
    36    13    36    1
    37    36    37    1
    38    13    38    1
@<TRIPOS>SUBSTRUCTURE
     1 1           1 GROUP             0 ****  ****    0  
