# created with PyMOL 2.3.4
@<TRIPOS>MOLECULE
Molecule Name_00001_00001
32 32 1
SMALL
USER_CHARGES
@<TRIPOS>ATOM
1	  O2	1.020	-0.511	1.499	O.3	1	PP31	0.000
2	  C3	-3.715	-0.543	-1.042	C.2	1	PP31	0.000
3	  C4	-5.028	-0.102	-1.240	C.2	1	PP31	0.000
4	  C5	-5.708	0.558	-0.211	C.2	1	PP31	0.000
5	  C6	-5.069	0.783	1.013	C.2	1	PP31	0.000
6	  C7	-3.756	0.341	1.210	C.2	1	PP31	0.000
7	  C8	-3.069	-0.329	0.186	C.2	1	PP31	0.000
8	  C9	-1.670	-0.872	0.424	C.3	1	PP31	0.000
9	 C10	-0.615	0.144	-0.077	C.3	1	PP31	0.000
10	 C11	0.805	-0.307	0.116	C.3	1	PP31	0.000
11	 C12	1.901	0.636	-0.407	C.3	1	PP31	0.000	
12	 C13	3.338	0.160	-0.363	C.2	1	PP31	0.000
13	 C14	4.398	1.103	-0.855	C.3	1	PP31	0.000
14	 C15	4.758	2.149	0.254	C.3	1	PP31	0.000
15	  H3	-3.186	-1.043	-1.850	 H	1	PP31	0.000
16	  H4	-5.515	-0.266	-2.196	 H	1	PP31	0.000
17	  H5	-6.725	0.903	-0.365	 H	1	PP31	0.000
18	  H6	-5.588	1.307	1.809	 H	1	PP31	0.000
19	  H7	-3.260	0.530	2.159	 H	1	PP31	0.000
20	 H21	0.505	-1.305	1.801	 H	1	PP31	0.000
21	 H22	0.922	-1.267	-0.385	 H	1	PP31	0.000
22	 H9A	-1.510	-1.066	1.490	 H	1	PP31	0.000
23	 H9B	-1.534	-1.825	-0.100	 H	1	PP31	0.000
24	H10A	-0.774	0.357	-1.147	 H	1	PP31	0.000
25	H10B	-0.751	1.110	0.437	 H	1	PP31	0.000
26	H12A	1.834	1.595	0.125	 H	1	PP31	0.000
27	H12B	1.664	0.876	-1.457	 H	1	PP31	0.000
28	H14A	5.300	0.558	-1.148	 H	1	PP31	0.000
29	H14B	4.023	1.637	-1.735	 H	1	PP31	0.000
30	H15A	3.887	2.750	0.532	 H	1	PP31	0.000
31	H15B	5.152	1.661	1.151	 H	1	PP31	0.000
32	H15C	5.526	2.823	-0.137	 H	1	PP31	0.000
@<TRIPOS>BOND
1 1 20 1
2 2 7 ar
3 2 15 1
4 2 3 ar
5 3 16 1
6 3 4 ar
7 4 5 ar
8 4 17 1
9 5 18 1
10 5 6 ar
11 6 19 1
12 6 7 ar
13 7 8 1
14 8 9 1
15 8 22 1
16 8 23 1
17 9 10 1
18 9 24 1
19 9 25 1
20 1 10 1
21 10 11 1
22 10 21 1
23 11 12 1
24 11 26 1
25 11 27 1
26 12 13 1
27 13 14 1
28 13 28 1
29 13 29 1
30 14 30 1
31 14 31 1
32 14 32 1
@<TRIPOS>SUBSTRUCTURE
1	PP31	1	GROUP	1 ****	PP3
