# created with PyMOL 2.3.4
@<TRIPOS>MOLECULE
obj01_00001_00001
12 11 1                 
SMALL
USER_CHARGES
@<TRIPOS>ATOM
1	 C10	7.856	-14.983	-17.652	C.3	1	BUT83	0.000	
2	 C12	8.478	-13.885	-18.497	C.3	1	BUT83	0.000	
3	 C13	9.543	-14.275	-19.461	C.3	1	BUT83	0.000	
4	 C14	10.112	-13.180	-20.305	C.3	1	BUT83	0.000	
5	 H01	11.145	-13.394	-20.570	 H	1	BUT83	0.000	
6	 H02	9.542	-13.067	-21.225	 H	1	BUT83	0.000	
7	 H03	10.088	-12.231	-19.773	 H	1	BUT83	0.000	
8	 H05	7.673	-13.402	-19.065	 H	1	BUT83	0.000	
9	 H06	8.902	-13.136	-17.816	 H	1	BUT83	0.000	
10	 H07	7.389	-15.737	-18.282	 H	1	BUT83	0.000	
11	 H08	7.095	-14.575	-16.990	 H	1	BUT83	0.000	
12	 H16	8.611	-15.472	-17.040	 H	1	BUT83	0.000	
@<TRIPOS>BOND
1 1 10 1
2 1 11 1
3 1 12 1
4 1 2 1
5 2 8 1
6 2 9 1
7 2 3 1
8 3 4 1
9 4 5 1
10 4 6 1
11 4 7 1
@<TRIPOS>SUBSTRUCTURE
1	BUT83	1	GROUP	1 ****	BUT
