@<TRIPOS>MOLECULE
Molecule Name_00001
    34    34     1     0     0
SMALL
NO_CHARGES
****
Generated from the CSD

@<TRIPOS>ATOM
     1 C11      0.9542  -0.1359   0.6737   C.3       1 1      0.0000
     2 C12      1.7236   0.0972  -0.6638   C.3       1 1      0.0000
     3 H12A     1.5035   1.1076  -1.0154   H         1 1      0.0000
     4 C13      3.1995  -0.1174  -0.4720   C.2       1 1      0.0000
     5 C14      3.7320  -1.5263  -0.5100   C.3       1 1      0.0000
     6 H14B     3.4250  -1.9625  -1.4729   H         1 1      0.0000
     7 H14A     3.1881  -2.0960   0.2583   H         1 1      0.0000
     8 N        4.0147   0.8787  -0.2792   N.pl3     1 1      0.0000
     9 HN       5.0062   0.6554  -0.1526   H         1 1      0.0000
    10 C        3.6598   2.3299  -0.1721   C.3       1 1      0.0000
    11 HC       4.5415   2.9063  -0.4556   H         1 1      0.0000
    12 HB       2.8381   2.5624  -0.8566   H         1 1      0.0000
    13 HA       3.3850   2.5394   0.8624   H         1 1      0.0000
    14 H12B     1.3472  -0.6171  -1.4040   H         1 1      0.0000
    15 O1       1.4197   0.9787   1.5317   O.3       1 1      0.0000
    16 H11      1.2611  -1.0920   1.1155   H         1 1      0.0000
    17 OH1      0.9640   0.9643   2.4150   H         1 1      0.0000
    18 C10     -0.5441  -0.1299   0.4474   C.ar      1 1      0.0000
    19 C9      -1.2359  -1.3438   0.3238   C.ar      1 1      0.0000
    20 C5      -1.2364   1.0871   0.3384   C.ar      1 1      0.0000
    21 C8      -2.6092  -1.3474   0.0736   C.ar      1 1      0.0000
    22 H9      -0.7110  -2.2894   0.4266   H         1 1      0.0000
    23 C6      -2.6091   1.0945   0.0987   C.ar      1 1      0.0000
    24 H5      -0.7090   2.0276   0.4608   H         1 1      0.0000
    25 C7      -3.2715  -0.1263  -0.0369   C.ar      1 1      0.0000
    26 H8      -3.1633  -2.2720  -0.0260   H         1 1      0.0000
    27 H6      -3.1650   2.0195   0.0160   H         1 1      0.0000
    28 NO      -4.7219  -0.1233  -0.3000   N.pl3     1 1      0.0000
    29 ON2     -5.3114   1.0149  -0.3980   O.2       1 1      0.0000
    30 ON1     -5.3115  -1.2603  -0.4141   O.2       1 1      0.0000
    31 C15      5.2497  -1.6892  -0.3121   C.3       1 1      0.0000
    32 H15A     5.5785  -1.3106   0.6631   H         1 1      0.0000
    33 H15C     5.5035  -2.7530  -0.3430   H         1 1      0.0000
    34 H15B     5.8235  -1.2062  -1.1128   H         1 1      0.0000
@<TRIPOS>BOND
     1     1     2    1
     2     1    15    1
     3     1    16    1
     4     1    18    1
     5     2     3    1
     6     2     4    1
     7     2    14    1
     8     4     5    1
     9     4     8    2
    10     5     6    1
    11     5     7    1
    12     5    31    1
    13     8     9    1
    14     8    10    1
    15    10    11    1
    16    10    12    1
    17    10    13    1
    18    15    17    1
    19    18    19   ar
    20    18    20   ar
    21    19    21   ar
    22    19    22    1
    23    20    23   ar
    24    20    24    1
    25    21    25   ar
    26    21    26    1
    27    23    25   ar
    28    23    27    1
    29    25    28    1
    30    28    29   un
    31    28    30   un
    32    31    32    1
    33    31    33    1
    34    31    34    1
@<TRIPOS>SUBSTRUCTURE
     1 1           1 GROUP             0 ****  ****    0  
@<TRIPOS>MOLECULE
Molecule Name_00002
    34    34     1     0     0
SMALL
NO_CHARGES
****
Generated from the CSD

@<TRIPOS>ATOM
     1 C11      0.9600  -0.3969  -0.6345   C.3       1 1      0.0000
     2 C12      1.7454  -0.0094   0.6570   C.3       1 1      0.0000
     3 H12A     1.5421  -0.7622   1.4218   H         1 1      0.0000
     4 C13      3.2164   0.1095   0.3687   C.2       1 1      0.0000
     5 C14      4.0576  -1.1401   0.3961   C.3       1 1      0.0000
     6 H14B     3.6189  -1.8416  -0.3300   H         1 1      0.0000
     7 H14A     3.9092  -1.6056   1.3820   H         1 1      0.0000
     8 N        3.7681   1.2565   0.0968   N.pl3     1 1      0.0000
     9 HN       4.7760   1.2605  -0.0852   H         1 1      0.0000
    10 C        3.0999   2.5966   0.0655   C.3       1 1      0.0000
    11 HC       3.8787   3.3500  -0.0608   H         1 1      0.0000
    12 HB       2.4064   2.6456  -0.7797   H         1 1      0.0000
    13 HA       2.5802   2.7420   1.0134   H         1 1      0.0000
    14 H12B     1.3669   0.9555   1.0111   H         1 1      0.0000
    15 O1       1.3875  -1.7931  -0.8857   O.3       1 1      0.0000
    16 H11      1.2803   0.2406  -1.4679   H         1 1      0.0000
    17 OH1      0.9181  -2.1742  -1.6747   H         1 1      0.0000
    18 C10     -0.5343  -0.2584  -0.4244   C.ar      1 1      0.0000
    19 C9      -1.1976   0.8944  -0.8701   C.ar      1 1      0.0000
    20 C5      -1.2509  -1.2702   0.2350   C.ar      1 1      0.0000
    21 C8      -2.5663   1.0491  -0.6438   C.ar      1 1      0.0000
    22 H9      -0.6540   1.6725  -1.3986   H         1 1      0.0000
    23 C6      -2.6195  -1.1301   0.4571   C.ar      1 1      0.0000
    24 H5      -0.7461  -2.1753   0.5566   H         1 1      0.0000
    25 C7      -3.2530   0.0335   0.0188   C.ar      1 1      0.0000
    26 H8      -3.0986   1.9303  -0.9783   H         1 1      0.0000
    27 H6      -3.1939  -1.8985   0.9583   H         1 1      0.0000
    28 NO      -4.6988   0.1903   0.2599   N.pl3     1 1      0.0000
    29 ON2     -5.3112  -0.7593   0.8729   O.2       1 1      0.0000
    30 ON1     -5.2618   1.2678  -0.1592   O.2       1 1      0.0000
    31 C15      5.5607  -0.9587   0.1190   C.3       1 1      0.0000
    32 H15A     6.0377  -0.3051   0.8592   H         1 1      0.0000
    33 H15C     6.0578  -1.9311   0.1853   H         1 1      0.0000
    34 H15B     5.7500  -0.5778  -0.8923   H         1 1      0.0000
@<TRIPOS>BOND
     1     1     2    1
     2     1    15    1
     3     1    16    1
     4     1    18    1
     5     2     3    1
     6     2     4    1
     7     2    14    1
     8     4     5    1
     9     4     8    2
    10     5     6    1
    11     5     7    1
    12     5    31    1
    13     8     9    1
    14     8    10    1
    15    10    11    1
    16    10    12    1
    17    10    13    1
    18    15    17    1
    19    18    19   ar
    20    18    20   ar
    21    19    21   ar
    22    19    22    1
    23    20    23   ar
    24    20    24    1
    25    21    25   ar
    26    21    26    1
    27    23    25   ar
    28    23    27    1
    29    25    28    1
    30    28    29   un
    31    28    30   un
    32    31    32    1
    33    31    33    1
    34    31    34    1
@<TRIPOS>SUBSTRUCTURE
     1 1           1 GROUP             0 ****  ****    0  
@<TRIPOS>MOLECULE
Molecule Name_00003
    34    34     1     0     0
SMALL
NO_CHARGES
****
Generated from the CSD

@<TRIPOS>ATOM
     1 C11      1.0050  -0.0055   0.8261   C.3       1 1      0.0000
     2 C12      1.8323   0.1334  -0.4898   C.3       1 1      0.0000
     3 H12A     1.6057   1.1035  -0.9374   H         1 1      0.0000
     4 C13      3.3019  -0.0233  -0.2124   C.2       1 1      0.0000
     5 C14      3.8685  -1.4150  -0.1035   C.3       1 1      0.0000
     6 H14B     3.2477  -1.9613   0.6230   H         1 1      0.0000
     7 H14A     4.8592  -1.3226   0.3662   H         1 1      0.0000
     8 N        4.0831   1.0078  -0.0694   N.pl3     1 1      0.0000
     9 HN       5.0724   0.8235   0.1217   H         1 1      0.0000
    10 C        3.6895   2.4525  -0.1050   C.3       1 1      0.0000
    11 HC       4.5711   3.0270  -0.3928   H         1 1      0.0000
    12 HB       2.8992   2.6035  -0.8468   H         1 1      0.0000
    13 HA       3.3567   2.7411   0.8928   H         1 1      0.0000
    14 H12B     1.5089  -0.6517  -1.1818   H         1 1      0.0000
    15 O1       1.4022   1.1907   1.6046   O.3       1 1      0.0000
    16 H11      1.3125  -0.9116   1.3628   H         1 1      0.0000
    17 OH1      0.9049   1.2393   2.4639   H         1 1      0.0000
    18 C10     -0.4804  -0.0603   0.5313   C.ar      1 1      0.0000
    19 C9      -1.1367  -1.2989   0.4818   C.ar      1 1      0.0000
    20 C5      -1.1950   1.1234   0.2854   C.ar      1 1      0.0000
    21 C8      -2.4959  -1.3618   0.1699   C.ar      1 1      0.0000
    22 H9      -0.5953  -2.2174   0.6903   H         1 1      0.0000
    23 C6      -2.5544   1.0724  -0.0169   C.ar      1 1      0.0000
    24 H5      -0.6965   2.0851   0.3500   H         1 1      0.0000
    25 C7      -3.1806  -0.1733  -0.0765   C.ar      1 1      0.0000
    26 H8      -3.0226  -2.3064   0.1255   H         1 1      0.0000
    27 H6      -3.1272   1.9713  -0.2050   H         1 1      0.0000
    28 NO      -4.6163  -0.2328  -0.4053   N.pl3     1 1      0.0000
    29 ON2     -5.2270   0.8761  -0.6287   O.2       1 1      0.0000
    30 ON1     -5.1728  -1.3913  -0.4475   O.2       1 1      0.0000
    31 C15      3.9787  -2.2129  -1.4151   C.3       1 1      0.0000
    32 H15A     4.6349  -1.7185  -2.1414   H         1 1      0.0000
    33 H15C     4.4182  -3.1923  -1.2036   H         1 1      0.0000
    34 H15B     2.9966  -2.4006  -1.8667   H         1 1      0.0000
@<TRIPOS>BOND
     1     1     2    1
     2     1    15    1
     3     1    16    1
     4     1    18    1
     5     2     3    1
     6     2     4    1
     7     2    14    1
     8     4     5    1
     9     4     8    2
    10     5     6    1
    11     5     7    1
    12     5    31    1
    13     8     9    1
    14     8    10    1
    15    10    11    1
    16    10    12    1
    17    10    13    1
    18    15    17    1
    19    18    19   ar
    20    18    20   ar
    21    19    21   ar
    22    19    22    1
    23    20    23   ar
    24    20    24    1
    25    21    25   ar
    26    21    26    1
    27    23    25   ar
    28    23    27    1
    29    25    28    1
    30    28    29   un
    31    28    30   un
    32    31    32    1
    33    31    33    1
    34    31    34    1
@<TRIPOS>SUBSTRUCTURE
     1 1           1 GROUP             0 ****  ****    0  
@<TRIPOS>MOLECULE
Molecule Name_00004
    34    34     1     0     0
SMALL
NO_CHARGES
****
Generated from the CSD

@<TRIPOS>ATOM
     1 C11      1.0826  -0.0861   0.5729   C.3       1 1      0.0000
     2 C12      1.8032   0.2431  -0.7716   C.3       1 1      0.0000
     3 H12A     1.5384   1.2619  -1.0630   H         1 1      0.0000
     4 C13      3.2906   0.0714  -0.6330   C.2       1 1      0.0000
     5 C14      3.8708  -1.3118  -0.7742   C.3       1 1      0.0000
     6 H14B     4.9530  -1.1938  -0.9376   H         1 1      0.0000
     7 H14A     3.4755  -1.7319  -1.7112   H         1 1      0.0000
     8 N        4.0756   1.0829  -0.3994   N.pl3     1 1      0.0000
     9 HN       5.0776   0.8888  -0.3135   H         1 1      0.0000
    10 C        3.6734   2.5106  -0.1914   C.3       1 1      0.0000
    11 HC       4.5774   3.1188  -0.2462   H         1 1      0.0000
    12 HB       2.9795   2.8191  -0.9794   H         1 1      0.0000
    13 HA       3.2162   2.5970   0.7952   H         1 1      0.0000
    14 H12B     1.4293  -0.4447  -1.5376   H         1 1      0.0000
    15 O1       1.5388   0.9960   1.4762   O.3       1 1      0.0000
    16 H11      1.4327  -1.0537   0.9532   H         1 1      0.0000
    17 OH1      1.1109   0.9195   2.3702   H         1 1      0.0000
    18 C10     -0.4213  -0.1175   0.3903   C.ar      1 1      0.0000
    19 C9      -1.0780  -1.3454   0.2211   C.ar      1 1      0.0000
    20 C5      -1.1545   1.0800   0.3674   C.ar      1 1      0.0000
    21 C8      -2.4575  -1.3809   0.0106   C.ar      1 1      0.0000
    22 H9      -0.5208  -2.2772   0.2574   H         1 1      0.0000
    23 C6      -2.5335   1.0548   0.1679   C.ar      1 1      0.0000
    24 H5      -0.6535   2.0295   0.5254   H         1 1      0.0000
    25 C7      -3.1610  -0.1782  -0.0146   C.ar      1 1      0.0000
    26 H8      -2.9851  -2.3167  -0.1230   H         1 1      0.0000
    27 H6      -3.1204   1.9641   0.1515   H         1 1      0.0000
    28 NO      -4.6181  -0.2091  -0.2353   N.pl3     1 1      0.0000
    29 ON2     -5.2458   0.9126  -0.2545   O.2       1 1      0.0000
    30 ON1     -5.1749  -1.3573  -0.3939   O.2       1 1      0.0000
    31 C15      3.6118  -2.2840   0.3907   C.3       1 1      0.0000
    32 H15A     2.6366  -2.7780   0.3027   H         1 1      0.0000
    33 H15C     4.3706  -3.0721   0.3760   H         1 1      0.0000
    34 H15B     3.6926  -1.7887   1.3662   H         1 1      0.0000
@<TRIPOS>BOND
     1     1     2    1
     2     1    15    1
     3     1    16    1
     4     1    18    1
     5     2     3    1
     6     2     4    1
     7     2    14    1
     8     4     5    1
     9     4     8    2
    10     5     6    1
    11     5     7    1
    12     5    31    1
    13     8     9    1
    14     8    10    1
    15    10    11    1
    16    10    12    1
    17    10    13    1
    18    15    17    1
    19    18    19   ar
    20    18    20   ar
    21    19    21   ar
    22    19    22    1
    23    20    23   ar
    24    20    24    1
    25    21    25   ar
    26    21    26    1
    27    23    25   ar
    28    23    27    1
    29    25    28    1
    30    28    29   un
    31    28    30   un
    32    31    32    1
    33    31    33    1
    34    31    34    1
@<TRIPOS>SUBSTRUCTURE
     1 1           1 GROUP             0 ****  ****    0  
@<TRIPOS>MOLECULE
Molecule Name_00005
    34    34     1     0     0
SMALL
NO_CHARGES
****
Generated from the CSD

@<TRIPOS>ATOM
     1 C11      1.0049  -0.1925  -0.8281   C.3       1 1      0.0000
     2 C12      1.8423   0.0141   0.4723   C.3       1 1      0.0000
     3 H12A     1.7001  -0.8577   1.1148   H         1 1      0.0000
     4 C13      3.2928   0.2321   0.1411   C.2       1 1      0.0000
     5 C14      4.1743  -0.9736  -0.0557   C.3       1 1      0.0000
     6 H14B     5.0958  -0.6244  -0.5462   H         1 1      0.0000
     7 H14A     3.6749  -1.6198  -0.7931   H         1 1      0.0000
     8 N        3.7930   1.4275   0.0203   N.pl3     1 1      0.0000
     9 HN       4.7902   1.4982  -0.2029   H         1 1      0.0000
    10 C        3.0810   2.7302   0.2192   C.3       1 1      0.0000
    11 HC       3.8278   3.5240   0.1734   H         1 1      0.0000
    12 HB       2.3457   2.8765  -0.5780   H         1 1      0.0000
    13 HA       2.6040   2.7130   1.2000   H         1 1      0.0000
    14 H12B     1.4535   0.8956   0.9933   H         1 1      0.0000
    15 O1       1.4568  -1.5163  -1.3162   O.3       1 1      0.0000
    16 H11      1.2665   0.5787  -1.5633   H         1 1      0.0000
    17 OH1      0.9595  -1.7846  -2.1340   H         1 1      0.0000
    18 C10     -0.4804  -0.1399  -0.5326   C.ar      1 1      0.0000
    19 C9      -1.1955   1.0452  -0.7599   C.ar      1 1      0.0000
    20 C5      -1.1363  -1.2667  -0.0107   C.ar      1 1      0.0000
    21 C8      -2.5551   1.1153  -0.4513   C.ar      1 1      0.0000
    22 H9      -0.6998   1.9148  -1.1819   H         1 1      0.0000
    23 C6      -2.4955  -1.2102   0.2914   C.ar      1 1      0.0000
    24 H5      -0.5921  -2.1933   0.1406   H         1 1      0.0000
    25 C7      -3.1809  -0.0146   0.0718   C.ar      1 1      0.0000
    26 H8      -3.1267   2.0194  -0.6179   H         1 1      0.0000
    27 H6      -3.0237  -2.0670   0.6895   H         1 1      0.0000
    28 NO      -4.6167   0.0527   0.3986   N.pl3     1 1      0.0000
    29 ON2     -5.1724  -1.0019   0.8800   O.2       1 1      0.0000
    30 ON1     -5.2283   1.1627   0.1811   O.2       1 1      0.0000
    31 C15      4.5182  -1.7828   1.2077   C.3       1 1      0.0000
    32 H15A     3.6214  -2.1894   1.6904   H         1 1      0.0000
    33 H15C     5.1441  -2.6356   0.9285   H         1 1      0.0000
    34 H15B     5.0958  -1.1927   1.9301   H         1 1      0.0000
@<TRIPOS>BOND
     1     1     2    1
     2     1    15    1
     3     1    16    1
     4     1    18    1
     5     2     3    1
     6     2     4    1
     7     2    14    1
     8     4     5    1
     9     4     8    2
    10     5     6    1
    11     5     7    1
    12     5    31    1
    13     8     9    1
    14     8    10    1
    15    10    11    1
    16    10    12    1
    17    10    13    1
    18    15    17    1
    19    18    19   ar
    20    18    20   ar
    21    19    21   ar
    22    19    22    1
    23    20    23   ar
    24    20    24    1
    25    21    25   ar
    26    21    26    1
    27    23    25   ar
    28    23    27    1
    29    25    28    1
    30    28    29   un
    31    28    30   un
    32    31    32    1
    33    31    33    1
    34    31    34    1
@<TRIPOS>SUBSTRUCTURE
     1 1           1 GROUP             0 ****  ****    0  
@<TRIPOS>MOLECULE
Molecule Name_00006
    34    34     1     0     0
SMALL
NO_CHARGES
****
Generated from the CSD

@<TRIPOS>ATOM
     1 C11      1.2511  -0.0631   1.8453   C.3       1 1      0.0000
     2 C12      2.3412   0.6480   0.9845   C.3       1 1      0.0000
     3 H12A     3.2669   0.6836   1.5631   H         1 1      0.0000
     4 C13      2.5303  -0.0633  -0.3268   C.2       1 1      0.0000
     5 C14      3.4173  -1.2805  -0.3630   C.3       1 1      0.0000
     6 H14B     3.0232  -1.9904   0.3803   H         1 1      0.0000
     7 H14A     4.4023  -0.9716   0.0180   H         1 1      0.0000
     8 N        1.9470   0.3464  -1.4157   N.pl3     1 1      0.0000
     9 HN       2.1257  -0.1861  -2.2722   H         1 1      0.0000
    10 C        1.0706   1.5507  -1.5741   C.3       1 1      0.0000
    11 HC       1.0558   1.8102  -2.6336   H         1 1      0.0000
    12 HB       0.0542   1.3158  -1.2432   H         1 1      0.0000
    13 HA       1.4995   2.3652  -0.9890   H         1 1      0.0000
    14 H12B     2.0113   1.6751   0.7949   H         1 1      0.0000
    15 O1       1.2535   0.7147   3.1063   O.3       1 1      0.0000
    16 H11      1.5574  -1.0963   2.0508   H         1 1      0.0000
    17 OH1      0.5608   0.3786   3.7349   H         1 1      0.0000
    18 C10     -0.0902  -0.0537   1.1403   C.ar      1 1      0.0000
    19 C9      -0.5113  -1.1856   0.4268   C.ar      1 1      0.0000
    20 C5      -0.9006   1.0925   1.1808   C.ar      1 1      0.0000
    21 C8      -1.7263  -1.1709  -0.2603   C.ar      1 1      0.0000
    22 H9       0.1007  -2.0829   0.4071   H         1 1      0.0000
    23 C6      -2.1200   1.1139   0.5066   C.ar      1 1      0.0000
    24 H5      -0.5905   1.9599   1.7544   H         1 1      0.0000
    25 C7      -2.5087  -0.0188  -0.2098   C.ar      1 1      0.0000
    26 H8      -2.0710  -2.0324  -0.8177   H         1 1      0.0000
    27 H6      -2.7639   1.9836   0.5276   H         1 1      0.0000
    28 NO      -3.7934   0.0026  -0.9323   N.pl3     1 1      0.0000
    29 ON2     -4.4981   1.0761  -0.8714   O.2       1 1      0.0000
    30 ON1     -4.1335  -1.0552  -1.5795   O.2       1 1      0.0000
    31 C15      3.5732  -1.9725  -1.7289   C.3       1 1      0.0000
    32 H15A     4.0138  -1.3044  -2.4787   H         1 1      0.0000
    33 H15C     4.2511  -2.8249  -1.6242   H         1 1      0.0000
    34 H15B     2.6210  -2.3725  -2.0991   H         1 1      0.0000
@<TRIPOS>BOND
     1     1     2    1
     2     1    15    1
     3     1    16    1
     4     1    18    1
     5     2     3    1
     6     2     4    1
     7     2    14    1
     8     4     5    1
     9     4     8    2
    10     5     6    1
    11     5     7    1
    12     5    31    1
    13     8     9    1
    14     8    10    1
    15    10    11    1
    16    10    12    1
    17    10    13    1
    18    15    17    1
    19    18    19   ar
    20    18    20   ar
    21    19    21   ar
    22    19    22    1
    23    20    23   ar
    24    20    24    1
    25    21    25   ar
    26    21    26    1
    27    23    25   ar
    28    23    27    1
    29    25    28    1
    30    28    29   un
    31    28    30   un
    32    31    32    1
    33    31    33    1
    34    31    34    1
@<TRIPOS>SUBSTRUCTURE
     1 1           1 GROUP             0 ****  ****    0  
@<TRIPOS>MOLECULE
Molecule Name_00007
    34    34     1     0     0
SMALL
NO_CHARGES
****
Generated from the CSD

@<TRIPOS>ATOM
     1 C11      1.1360   1.1144   1.4229   C.3       1 1      0.0000
     2 C12      2.1659   1.3288   0.2704   C.3       1 1      0.0000
     3 H12A     3.0729   1.7635   0.6963   H         1 1      0.0000
     4 C13      2.4481   0.0326  -0.4378   C.2       1 1      0.0000
     5 C14      1.5854  -0.3471  -1.6130   C.3       1 1      0.0000
     6 H14B     1.6444   0.4789  -2.3383   H         1 1      0.0000
     7 H14A     0.5438  -0.3536  -1.2581   H         1 1      0.0000
     8 N        3.4130  -0.7551  -0.0607   N.pl3     1 1      0.0000
     9 HN       3.5431  -1.6232  -0.5885   H         1 1      0.0000
    10 C        4.3380  -0.5601   1.1012   C.3       1 1      0.0000
    11 HC       4.9295  -1.4704   1.2076   H         1 1      0.0000
    12 HB       5.0045   0.2859   0.9067   H         1 1      0.0000
    13 HA       3.7347  -0.3920   1.9942   H         1 1      0.0000
    14 H12B     1.7396   2.0444  -0.4409   H         1 1      0.0000
    15 O1       1.0455   2.4534   2.0507   O.3       1 1      0.0000
    16 H11      1.5364   0.3952   2.1482   H         1 1      0.0000
    17 OH1      0.3788   2.4582   2.7879   H         1 1      0.0000
    18 C10     -0.1895   0.6174   0.8823   C.ar      1 1      0.0000
    19 C9      -0.5114  -0.7451   0.9686   C.ar      1 1      0.0000
    20 C5      -1.0846   1.5133   0.2753   C.ar      1 1      0.0000
    21 C8      -1.7117  -1.2184   0.4359   C.ar      1 1      0.0000
    22 H9       0.1667  -1.4412   1.4542   H         1 1      0.0000
    23 C6      -2.2900   1.0526  -0.2507   C.ar      1 1      0.0000
    24 H5      -0.8509   2.5721   0.2314   H         1 1      0.0000
    25 C7      -2.5795  -0.3099  -0.1671   C.ar      1 1      0.0000
    26 H8      -1.9806  -2.2656   0.4906   H         1 1      0.0000
    27 H6      -2.9979   1.7247  -0.7183   H         1 1      0.0000
    28 NO      -3.8491  -0.8033  -0.7306   N.pl3     1 1      0.0000
    29 ON2     -4.6337   0.0530  -1.2819   O.2       1 1      0.0000
    30 ON1     -4.0970  -2.0615  -0.6355   O.2       1 1      0.0000
    31 C15      1.9167  -1.6835  -2.3010   C.3       1 1      0.0000
    32 H15A     1.8151  -2.5334  -1.6154   H         1 1      0.0000
    33 H15C     1.2117  -1.8496  -3.1210   H         1 1      0.0000
    34 H15B     2.9198  -1.6804  -2.7454   H         1 1      0.0000
@<TRIPOS>BOND
     1     1     2    1
     2     1    15    1
     3     1    16    1
     4     1    18    1
     5     2     3    1
     6     2     4    1
     7     2    14    1
     8     4     5    1
     9     4     8    2
    10     5     6    1
    11     5     7    1
    12     5    31    1
    13     8     9    1
    14     8    10    1
    15    10    11    1
    16    10    12    1
    17    10    13    1
    18    15    17    1
    19    18    19   ar
    20    18    20   ar
    21    19    21   ar
    22    19    22    1
    23    20    23   ar
    24    20    24    1
    25    21    25   ar
    26    21    26    1
    27    23    25   ar
    28    23    27    1
    29    25    28    1
    30    28    29   un
    31    28    30   un
    32    31    32    1
    33    31    33    1
    34    31    34    1
@<TRIPOS>SUBSTRUCTURE
     1 1           1 GROUP             0 ****  ****    0  
@<TRIPOS>MOLECULE
Molecule Name_00008
    34    34     1     0     0
SMALL
NO_CHARGES
****
Generated from the CSD

@<TRIPOS>ATOM
     1 C11      0.9624  -0.6677   0.4389   C.3       1 1      0.0000
     2 C12      1.7554   0.6189   0.0507   C.3       1 1      0.0000
     3 H12A     1.6372   1.3507   0.8528   H         1 1      0.0000
     4 C13      3.2024   0.2956  -0.2004   C.2       1 1      0.0000
     5 C14      3.9562  -0.4852   0.8445   C.3       1 1      0.0000
     6 H14B     3.4328  -1.4452   0.9715   H         1 1      0.0000
     7 H14A     3.8288   0.0483   1.7983   H         1 1      0.0000
     8 N        3.8063   0.6707  -1.2905   N.pl3     1 1      0.0000
     9 HN       4.7937   0.4177  -1.3903   H         1 1      0.0000
    10 C        3.2302   1.4816  -2.4103   C.3       1 1      0.0000
    11 HC       4.0452   1.7263  -3.0929   H         1 1      0.0000
    12 HB       2.4744   0.8955  -2.9421   H         1 1      0.0000
    13 HA       2.8014   2.3915  -1.9884   H         1 1      0.0000
    14 H12B     1.3129   1.0311  -0.8625   H         1 1      0.0000
    15 O1       1.3861  -0.9189   1.8362   O.3       1 1      0.0000
    16 H11      1.2794  -1.5039  -0.1967   H         1 1      0.0000
    17 OH1      0.9118  -1.7048   2.2178   H         1 1      0.0000
    18 C10     -0.5305  -0.4498   0.2974   C.ar      1 1      0.0000
    19 C9      -1.3009  -1.3580  -0.4436   C.ar      1 1      0.0000
    20 C5      -1.1391   0.6703   0.8866   C.ar      1 1      0.0000
    21 C8      -2.6696  -1.1426  -0.6142   C.ar      1 1      0.0000
    22 H9      -0.8412  -2.2373  -0.8858   H         1 1      0.0000
    23 C6      -2.5065   0.8891   0.7308   C.ar      1 1      0.0000
    24 H5      -0.5509   1.3599   1.4834   H         1 1      0.0000
    25 C7      -3.2479  -0.0200  -0.0249   C.ar      1 1      0.0000
    26 H8      -3.2835  -1.8297  -1.1823   H         1 1      0.0000
    27 H6      -2.9986   1.7422   1.1798   H         1 1      0.0000
    28 NO      -4.6930   0.2124  -0.2004   N.pl3     1 1      0.0000
    29 ON2     -5.2044   1.2544   0.3523   O.2       1 1      0.0000
    30 ON1     -5.3564  -0.6425  -0.8949   O.2       1 1      0.0000
    31 C15      5.4515  -0.7270   0.5708   C.3       1 1      0.0000
    32 H15A     6.0106   0.2131   0.4916   H         1 1      0.0000
    33 H15C     5.8837  -1.2852   1.4067   H         1 1      0.0000
    34 H15B     5.6127  -1.3340  -0.3287   H         1 1      0.0000
@<TRIPOS>BOND
     1     1     2    1
     2     1    15    1
     3     1    16    1
     4     1    18    1
     5     2     3    1
     6     2     4    1
     7     2    14    1
     8     4     5    1
     9     4     8    2
    10     5     6    1
    11     5     7    1
    12     5    31    1
    13     8     9    1
    14     8    10    1
    15    10    11    1
    16    10    12    1
    17    10    13    1
    18    15    17    1
    19    18    19   ar
    20    18    20   ar
    21    19    21   ar
    22    19    22    1
    23    20    23   ar
    24    20    24    1
    25    21    25   ar
    26    21    26    1
    27    23    25   ar
    28    23    27    1
    29    25    28    1
    30    28    29   un
    31    28    30   un
    32    31    32    1
    33    31    33    1
    34    31    34    1
@<TRIPOS>SUBSTRUCTURE
     1 1           1 GROUP             0 ****  ****    0  
@<TRIPOS>MOLECULE
Molecule Name_00009
    34    34     1     0     0
SMALL
NO_CHARGES
****
Generated from the CSD

@<TRIPOS>ATOM
     1 C11      0.9521  -0.4105   0.5304   C.3       1 1      0.0000
     2 C12      1.7357   0.3821  -0.5618   C.3       1 1      0.0000
     3 H12A     1.5098   1.4442  -0.4441   H         1 1      0.0000
     4 C13      3.2112   0.1111  -0.4588   C.2       1 1      0.0000
     5 C14      3.7584  -1.1400  -1.0952   C.3       1 1      0.0000
     6 H14B     3.4680  -1.1169  -2.1567   H         1 1      0.0000
     7 H14A     3.2107  -1.9886  -0.6584   H         1 1      0.0000
     8 N        4.0137   0.9282   0.1594   N.pl3     1 1      0.0000
     9 HN       5.0058   0.6758   0.1924   H         1 1      0.0000
    10 C        3.6428   2.1882   0.8793   C.3       1 1      0.0000
    11 HC       4.5674   2.7165   1.1161   H         1 1      0.0000
    12 HB       3.0212   2.8155   0.2329   H         1 1      0.0000
    13 HA       3.1149   1.9167   1.7943   H         1 1      0.0000
    14 H12B     1.3759   0.0579  -1.5442   H         1 1      0.0000
    15 O1       1.4217   0.2004   1.7957   O.3       1 1      0.0000
    16 H11      1.2448  -1.4675   0.5022   H         1 1      0.0000
    17 OH1      0.9580  -0.1989   2.5791   H         1 1      0.0000
    18 C10     -0.5440  -0.2844   0.3253   C.ar      1 1      0.0000
    19 C9      -1.4259  -0.9015   1.2247   C.ar      1 1      0.0000
    20 C5      -1.0479   0.4287  -0.7746   C.ar      1 1      0.0000
    21 C8      -2.8047  -0.8257   1.0203   C.ar      1 1      0.0000
    22 H9      -1.0446  -1.4382   2.0889   H         1 1      0.0000
    23 C6      -2.4229   0.5189  -0.9822   C.ar      1 1      0.0000
    24 H5      -0.3692   0.9303  -1.4568   H         1 1      0.0000
    25 C7      -3.2788  -0.1177  -0.0825   C.ar      1 1      0.0000
    26 H8      -3.5038  -1.2946   1.7009   H         1 1      0.0000
    27 H6      -2.8348   1.0672  -1.8195   H         1 1      0.0000
    28 NO      -4.7338  -0.0330  -0.3033   N.pl3     1 1      0.0000
    29 ON2     -5.1478   0.6253  -1.3270   O.2       1 1      0.0000
    30 ON1     -5.5026  -0.6217   0.5428   O.2       1 1      0.0000
    31 C15      5.2751  -1.3670  -0.9636   C.3       1 1      0.0000
    32 H15A     5.5878  -1.4474   0.0844   H         1 1      0.0000
    33 H15C     5.5401  -2.3113  -1.4485   H         1 1      0.0000
    34 H15B     5.8541  -0.5826  -1.4667   H         1 1      0.0000
@<TRIPOS>BOND
     1     1     2    1
     2     1    15    1
     3     1    16    1
     4     1    18    1
     5     2     3    1
     6     2     4    1
     7     2    14    1
     8     4     5    1
     9     4     8    2
    10     5     6    1
    11     5     7    1
    12     5    31    1
    13     8     9    1
    14     8    10    1
    15    10    11    1
    16    10    12    1
    17    10    13    1
    18    15    17    1
    19    18    19   ar
    20    18    20   ar
    21    19    21   ar
    22    19    22    1
    23    20    23   ar
    24    20    24    1
    25    21    25   ar
    26    21    26    1
    27    23    25   ar
    28    23    27    1
    29    25    28    1
    30    28    29   un
    31    28    30   un
    32    31    32    1
    33    31    33    1
    34    31    34    1
@<TRIPOS>SUBSTRUCTURE
     1 1           1 GROUP             0 ****  ****    0  
@<TRIPOS>MOLECULE
Molecule Name_00010
    34    34     1     0     0
SMALL
NO_CHARGES
****
Generated from the CSD

@<TRIPOS>ATOM
     1 C11      0.9569  -0.7117  -0.1246   C.3       1 1      0.0000
     2 C12      1.7590   0.5361   0.3598   C.3       1 1      0.0000
     3 H12A     1.5608   0.6802   1.4242   H         1 1      0.0000
     4 C13      3.2272   0.3635   0.0845   C.2       1 1      0.0000
     5 C14      4.0650  -0.3804   1.0917   C.3       1 1      0.0000
     6 H14B     3.6177  -1.3792   1.2101   H         1 1      0.0000
     7 H14A     3.9242   0.1221   2.0604   H         1 1      0.0000
     8 N        3.7794   0.8364  -0.9951   N.pl3     1 1      0.0000
     9 HN       4.7853   0.6837  -1.1128   H         1 1      0.0000
    10 C        3.1148   1.6303  -2.0774   C.3       1 1      0.0000
    11 HC       3.8944   1.9784  -2.7565   H         1 1      0.0000
    12 HB       2.4124   0.9948  -2.6256   H         1 1      0.0000
    13 HA       2.6058   2.4778  -1.6166   H         1 1      0.0000
    14 H12B     1.3895   1.4125  -0.1834   H         1 1      0.0000
    15 O1       1.4131  -1.7845   0.7899   O.3       1 1      0.0000
    16 H11      1.2444  -0.9599  -1.1538   H         1 1      0.0000
    17 OH1      0.9370  -2.6374   0.6058   H         1 1      0.0000
    18 C10     -0.5357  -0.4602  -0.0527   C.ar      1 1      0.0000
    19 C9      -1.4324  -1.4696  -0.4329   C.ar      1 1      0.0000
    20 C5      -1.0214   0.7874   0.3712   C.ar      1 1      0.0000
    21 C8      -2.8078  -1.2326  -0.4096   C.ar      1 1      0.0000
    22 H9      -1.0652  -2.4438  -0.7431   H         1 1      0.0000
    23 C6      -2.3930   1.0309   0.4077   C.ar      1 1      0.0000
    24 H5      -0.3314   1.5611   0.6921   H         1 1      0.0000
    25 C7      -3.2638   0.0161   0.0086   C.ar      1 1      0.0000
    26 H8      -3.5181  -1.9964  -0.6991   H         1 1      0.0000
    27 H6      -2.7911   1.9825   0.7356   H         1 1      0.0000
    28 NO      -4.7151   0.2723   0.0365   N.pl3     1 1      0.0000
    29 ON2     -5.1123   1.4313   0.4259   O.2       1 1      0.0000
    30 ON1     -5.4979  -0.6801  -0.3290   O.2       1 1      0.0000
    31 C15      5.5660  -0.5041   0.7746   C.3       1 1      0.0000
    32 H15A     6.0516   0.4766   0.7026   H         1 1      0.0000
    33 H15C     6.0609  -1.0458   1.5862   H         1 1      0.0000
    34 H15B     5.7473  -1.0785  -0.1424   H         1 1      0.0000
@<TRIPOS>BOND
     1     1     2    1
     2     1    15    1
     3     1    16    1
     4     1    18    1
     5     2     3    1
     6     2     4    1
     7     2    14    1
     8     4     5    1
     9     4     8    2
    10     5     6    1
    11     5     7    1
    12     5    31    1
    13     8     9    1
    14     8    10    1
    15    10    11    1
    16    10    12    1
    17    10    13    1
    18    15    17    1
    19    18    19   ar
    20    18    20   ar
    21    19    21   ar
    22    19    22    1
    23    20    23   ar
    24    20    24    1
    25    21    25   ar
    26    21    26    1
    27    23    25   ar
    28    23    27    1
    29    25    28    1
    30    28    29   un
    31    28    30   un
    32    31    32    1
    33    31    33    1
    34    31    34    1
@<TRIPOS>SUBSTRUCTURE
     1 1           1 GROUP             0 ****  ****    0  
@<TRIPOS>MOLECULE
Molecule Name_00011
    34    34     1     0     0
SMALL
NO_CHARGES
****
Generated from the CSD

@<TRIPOS>ATOM
     1 C11      0.9509  -0.1885   0.6937   C.3       1 1      0.0000
     2 C12      1.7205   0.1190  -0.6286   C.3       1 1      0.0000
     3 H12A     1.4890   1.1427  -0.9309   H         1 1      0.0000
     4 C13      3.1985  -0.0870  -0.4433   C.2       1 1      0.0000
     5 C14      3.6758  -1.3980   0.1253   C.3       1 1      0.0000
     6 H14B     3.2671  -2.1959  -0.5136   H         1 1      0.0000
     7 H14A     3.1848  -1.5223   1.1021   H         1 1      0.0000
     8 N        4.0613   0.8332  -0.7634   N.pl3     1 1      0.0000
     9 HN       5.0512   0.6232  -0.6054   H         1 1      0.0000
    10 C        3.7680   2.2008  -1.2992   C.3       1 1      0.0000
    11 HC       4.7086   2.7526  -1.3263   H         1 1      0.0000
    12 HB       3.3628   2.1231  -2.3128   H         1 1      0.0000
    13 HA       3.0609   2.6875  -0.6261   H         1 1      0.0000
    14 H12B     1.3545  -0.5625  -1.4040   H         1 1      0.0000
    15 O1       1.4122   0.8795   1.6111   O.3       1 1      0.0000
    16 H11      1.2606  -1.1662   1.0833   H         1 1      0.0000
    17 OH1      0.9558   0.8158   2.4919   H         1 1      0.0000
    18 C10     -0.5472  -0.1752   0.4666   C.ar      1 1      0.0000
    19 C9      -1.1439  -1.1781  -0.3116   C.ar      1 1      0.0000
    20 C5      -1.3347   0.8507   1.0140   C.ar      1 1      0.0000
    21 C8      -2.5172  -1.1503  -0.5606   C.ar      1 1      0.0000
    22 H9      -0.5446  -1.9859  -0.7220   H         1 1      0.0000
    23 C6      -2.7081   0.8820   0.7798   C.ar      1 1      0.0000
    24 H5      -0.8805   1.6126   1.6391   H         1 1      0.0000
    25 C7      -3.2751  -0.1178  -0.0114   C.ar      1 1      0.0000
    26 H8      -2.9989  -1.9133  -1.1586   H         1 1      0.0000
    27 H6      -3.3362   1.6594   1.1953   H         1 1      0.0000
    28 NO      -4.7260  -0.0835  -0.2697   N.pl3     1 1      0.0000
    29 ON2     -5.4047   0.8782   0.2471   O.2       1 1      0.0000
    30 ON1     -5.2267  -1.0193  -0.9957   O.2       1 1      0.0000
    31 C15      5.1986  -1.5643   0.2751   C.3       1 1      0.0000
    32 H15A     5.6282  -0.8139   0.9496   H         1 1      0.0000
    33 H15C     5.4114  -2.5445   0.7122   H         1 1      0.0000
    34 H15B     5.7135  -1.5340  -0.6932   H         1 1      0.0000
@<TRIPOS>BOND
     1     1     2    1
     2     1    15    1
     3     1    16    1
     4     1    18    1
     5     2     3    1
     6     2     4    1
     7     2    14    1
     8     4     5    1
     9     4     8    2
    10     5     6    1
    11     5     7    1
    12     5    31    1
    13     8     9    1
    14     8    10    1
    15    10    11    1
    16    10    12    1
    17    10    13    1
    18    15    17    1
    19    18    19   ar
    20    18    20   ar
    21    19    21   ar
    22    19    22    1
    23    20    23   ar
    24    20    24    1
    25    21    25   ar
    26    21    26    1
    27    23    25   ar
    28    23    27    1
    29    25    28    1
    30    28    29   un
    31    28    30   un
    32    31    32    1
    33    31    33    1
    34    31    34    1
@<TRIPOS>SUBSTRUCTURE
     1 1           1 GROUP             0 ****  ****    0  
@<TRIPOS>MOLECULE
Molecule Name_00012
    34    34     1     0     0
SMALL
NO_CHARGES
****
Generated from the CSD

@<TRIPOS>ATOM
     1 C11      0.9560  -0.7422  -0.2145   C.3       1 1      0.0000
     2 C12      1.7753   0.3506   0.5404   C.3       1 1      0.0000
     3 H12A     1.6556   0.1896   1.6140   H         1 1      0.0000
     4 C13      3.2209   0.3101   0.1282   C.2       1 1      0.0000
     5 C14      3.9454  -1.0099   0.1764   C.3       1 1      0.0000
     6 H14B     3.4050  -1.7004  -0.4892   H         1 1      0.0000
     7 H14A     3.8109  -1.4133   1.1912   H         1 1      0.0000
     8 N        3.8482   1.3798  -0.2668   N.pl3     1 1      0.0000
     9 HN       4.8331   1.2762  -0.5283   H         1 1      0.0000
    10 C        3.3031   2.7731  -0.3390   C.3       1 1      0.0000
    11 HC       4.1328   3.4392  -0.5795   H         1 1      0.0000
    12 HB       2.5469   2.8351  -1.1277   H         1 1      0.0000
    13 HA       2.8819   3.0265   0.6346   H         1 1      0.0000
    14 H12B     1.3542   1.3296   0.2876   H         1 1      0.0000
    15 O1       1.3531  -1.9959   0.4679   O.3       1 1      0.0000
    16 H11      1.2701  -0.7807  -1.2649   H         1 1      0.0000
    17 OH1      0.8604  -2.7758   0.0977   H         1 1      0.0000
    18 C10     -0.5308  -0.4617  -0.1310   C.ar      1 1      0.0000
    19 C9      -1.3600  -1.3104   0.6171   C.ar      1 1      0.0000
    20 C5      -1.0823   0.6314  -0.8189   C.ar      1 1      0.0000
    21 C8      -2.7365  -1.0838   0.6654   C.ar      1 1      0.0000
    22 H9      -0.9383  -2.1464   1.1680   H         1 1      0.0000
    23 C6      -2.4539   0.8723  -0.7689   C.ar      1 1      0.0000
    24 H5      -0.4400   1.3058  -1.3759   H         1 1      0.0000
    25 C7      -3.2596   0.0038  -0.0314   C.ar      1 1      0.0000
    26 H8      -3.3955  -1.7259   1.2357   H         1 1      0.0000
    27 H6      -2.9012   1.7112  -1.2863   H         1 1      0.0000
    28 NO      -4.7123   0.2492   0.0166   N.pl3     1 1      0.0000
    29 ON2     -5.1721   1.2582  -0.6338   O.2       1 1      0.0000
    30 ON1     -5.4333  -0.5605   0.7082   O.2       1 1      0.0000
    31 C15      5.4409  -0.9827  -0.1867   C.3       1 1      0.0000
    32 H15A     6.0159  -0.3428   0.4934   H         1 1      0.0000
    33 H15C     5.8507  -1.9931  -0.0962   H         1 1      0.0000
    34 H15B     5.6071  -0.6685  -1.2246   H         1 1      0.0000
@<TRIPOS>BOND
     1     1     2    1
     2     1    15    1
     3     1    16    1
     4     1    18    1
     5     2     3    1
     6     2     4    1
     7     2    14    1
     8     4     5    1
     9     4     8    2
    10     5     6    1
    11     5     7    1
    12     5    31    1
    13     8     9    1
    14     8    10    1
    15    10    11    1
    16    10    12    1
    17    10    13    1
    18    15    17    1
    19    18    19   ar
    20    18    20   ar
    21    19    21   ar
    22    19    22    1
    23    20    23   ar
    24    20    24    1
    25    21    25   ar
    26    21    26    1
    27    23    25   ar
    28    23    27    1
    29    25    28    1
    30    28    29   un
    31    28    30   un
    32    31    32    1
    33    31    33    1
    34    31    34    1
@<TRIPOS>SUBSTRUCTURE
     1 1           1 GROUP             0 ****  ****    0  
@<TRIPOS>MOLECULE
Molecule Name_00013
    34    34     1     0     0
SMALL
NO_CHARGES
****
Generated from the CSD

@<TRIPOS>ATOM
     1 C11      0.9629  -0.3028  -0.6341   C.3       1 1      0.0000
     2 C12      1.7452   0.0092   0.6796   C.3       1 1      0.0000
     3 H12A     1.5116  -0.7673   1.4114   H         1 1      0.0000
     4 C13      3.2221   0.0957   0.4106   C.2       1 1      0.0000
     5 C14      4.1191  -0.9766   0.9721   C.3       1 1      0.0000
     6 H14B     3.7400  -1.9419   0.6029   H         1 1      0.0000
     7 H14A     3.9573  -0.9934   2.0604   H         1 1      0.0000
     8 N        3.7323   1.0656  -0.2915   N.pl3     1 1      0.0000
     9 HN       4.7471   1.0607  -0.4299   H         1 1      0.0000
    10 C        3.0037   2.2300  -0.8887   C.3       1 1      0.0000
    11 HC       3.7428   2.9999  -1.1150   H         1 1      0.0000
    12 HB       2.5056   1.9214  -1.8130   H         1 1      0.0000
    13 HA       2.2851   2.5969  -0.1547   H         1 1      0.0000
    14 H12B     1.3913   0.9699   1.0687   H         1 1      0.0000
    15 O1       1.3970  -1.6791  -0.9689   O.3       1 1      0.0000
    16 H11      1.2812   0.3856  -1.4268   H         1 1      0.0000
    17 OH1      0.9301  -2.0137  -1.7802   H         1 1      0.0000
    18 C10     -0.5323  -0.1839  -0.4179   C.ar      1 1      0.0000
    19 C9      -1.1045   1.0738  -0.1768   C.ar      1 1      0.0000
    20 C5      -1.3412  -1.3317  -0.4357   C.ar      1 1      0.0000
    21 C8      -2.4747   1.1875   0.0648   C.ar      1 1      0.0000
    22 H9      -0.4886   1.9687  -0.1810   H         1 1      0.0000
    23 C6      -2.7117  -1.2279  -0.2057   C.ar      1 1      0.0000
    24 H5      -0.9060  -2.3026  -0.6492   H         1 1      0.0000
    25 C7      -3.2542   0.0324   0.0483   C.ar      1 1      0.0000
    26 H8      -2.9377   2.1475   0.2538   H         1 1      0.0000
    27 H6      -3.3561  -2.0974  -0.2196   H         1 1      0.0000
    28 NO      -4.7019   0.1459   0.3015   N.pl3     1 1      0.0000
    29 ON2     -5.4008  -0.9329   0.2813   O.2       1 1      0.0000
    30 ON1     -5.1799   1.3184   0.5261   O.2       1 1      0.0000
    31 C15      5.6211  -0.8422   0.6640   C.3       1 1      0.0000
    32 H15A     6.0402   0.0878   1.0666   H         1 1      0.0000
    33 H15C     6.1604  -1.6668   1.1398   H         1 1      0.0000
    34 H15B     5.8287  -0.9104  -0.4111   H         1 1      0.0000
@<TRIPOS>BOND
     1     1     2    1
     2     1    15    1
     3     1    16    1
     4     1    18    1
     5     2     3    1
     6     2     4    1
     7     2    14    1
     8     4     5    1
     9     4     8    2
    10     5     6    1
    11     5     7    1
    12     5    31    1
    13     8     9    1
    14     8    10    1
    15    10    11    1
    16    10    12    1
    17    10    13    1
    18    15    17    1
    19    18    19   ar
    20    18    20   ar
    21    19    21   ar
    22    19    22    1
    23    20    23   ar
    24    20    24    1
    25    21    25   ar
    26    21    26    1
    27    23    25   ar
    28    23    27    1
    29    25    28    1
    30    28    29   un
    31    28    30   un
    32    31    32    1
    33    31    33    1
    34    31    34    1
@<TRIPOS>SUBSTRUCTURE
     1 1           1 GROUP             0 ****  ****    0  
@<TRIPOS>MOLECULE
Molecule Name_00014
    34    34     1     0     0
SMALL
NO_CHARGES
****
Generated from the CSD

@<TRIPOS>ATOM
     1 C11      1.4151  -0.1348   1.6097   C.3       1 1      0.0000
     2 C12      2.4198   0.6866   0.7431   C.3       1 1      0.0000
     3 H12A     3.3839   0.7017   1.2562   H         1 1      0.0000
     4 C13      2.5321   0.1016  -0.6377   C.2       1 1      0.0000
     5 C14      3.4487  -1.0755  -0.8473   C.3       1 1      0.0000
     6 H14B     4.4298  -0.7999  -0.4313   H         1 1      0.0000
     7 H14A     3.6051  -1.1716  -1.9322   H         1 1      0.0000
     8 N        1.8586   0.5855  -1.6408   N.pl3     1 1      0.0000
     9 HN       1.9890   0.1378  -2.5527   H         1 1      0.0000
    10 C        0.9386   1.7674  -1.6263   C.3       1 1      0.0000
    11 HC       0.8146   2.1008  -2.6575   H         1 1      0.0000
    12 HB      -0.0343   1.4752  -1.2193   H         1 1      0.0000
    13 HA       1.3998   2.5525  -1.0256   H         1 1      0.0000
    14 H12B     2.0490   1.7147   0.6715   H         1 1      0.0000
    15 O1       1.4891   0.5266   2.9334   O.3       1 1      0.0000
    16 H11      1.7633  -1.1715   1.6973   H         1 1      0.0000
    17 OH1      0.8535   0.1125   3.5759   H         1 1      0.0000
    18 C10      0.0260  -0.1070   1.0049   C.ar      1 1      0.0000
    19 C9      -0.4160  -1.1841   0.2226   C.ar      1 1      0.0000
    20 C5      -0.8095   1.0036   1.2070   C.ar      1 1      0.0000
    21 C8      -1.6781  -1.1485  -0.3728   C.ar      1 1      0.0000
    22 H9       0.2165  -2.0554   0.0779   H         1 1      0.0000
    23 C6      -2.0751   1.0446   0.6253   C.ar      1 1      0.0000
    24 H5      -0.4813   1.8261   1.8341   H         1 1      0.0000
    25 C7      -2.4850  -0.0320  -0.1623   C.ar      1 1      0.0000
    26 H8      -2.0397  -1.9678  -0.9809   H         1 1      0.0000
    27 H6      -2.7387   1.8872   0.7710   H         1 1      0.0000
    28 NO      -3.8193   0.0112  -0.7873   N.pl3     1 1      0.0000
    29 ON2     -4.5459   1.0510  -0.5791   O.2       1 1      0.0000
    30 ON1     -4.1776  -0.9954  -1.5028   O.2       1 1      0.0000
    31 C15      2.9808  -2.4194  -0.2606   C.3       1 1      0.0000
    32 H15A     1.9696  -2.6821  -0.5941   H         1 1      0.0000
    33 H15C     3.6474  -3.2143  -0.6082   H         1 1      0.0000
    34 H15B     3.0264  -2.4284   0.8355   H         1 1      0.0000
@<TRIPOS>BOND
     1     1     2    1
     2     1    15    1
     3     1    16    1
     4     1    18    1
     5     2     3    1
     6     2     4    1
     7     2    14    1
     8     4     5    1
     9     4     8    2
    10     5     6    1
    11     5     7    1
    12     5    31    1
    13     8     9    1
    14     8    10    1
    15    10    11    1
    16    10    12    1
    17    10    13    1
    18    15    17    1
    19    18    19   ar
    20    18    20   ar
    21    19    21   ar
    22    19    22    1
    23    20    23   ar
    24    20    24    1
    25    21    25   ar
    26    21    26    1
    27    23    25   ar
    28    23    27    1
    29    25    28    1
    30    28    29   un
    31    28    30   un
    32    31    32    1
    33    31    33    1
    34    31    34    1
@<TRIPOS>SUBSTRUCTURE
     1 1           1 GROUP             0 ****  ****    0  
@<TRIPOS>MOLECULE
Molecule Name_00015
    34    34     1     0     0
SMALL
NO_CHARGES
****
Generated from the CSD

@<TRIPOS>ATOM
     1 C11      1.2532  -0.2800   1.6744   C.3       1 1      0.0000
     2 C12      2.3278   0.4389   0.8007   C.3       1 1      0.0000
     3 H12A     3.2823   0.4020   1.3304   H         1 1      0.0000
     4 C13      2.4196  -0.1973  -0.5587   C.2       1 1      0.0000
     5 C14      3.2507  -1.4443  -0.7142   C.3       1 1      0.0000
     6 H14B     2.9652  -1.9064  -1.6715   H         1 1      0.0000
     7 H14A     2.9206  -2.1494   0.0634   H         1 1      0.0000
     8 N        1.8001   0.3014  -1.5889   N.pl3     1 1      0.0000
     9 HN       1.9123  -0.1841  -2.4838   H         1 1      0.0000
    10 C        0.9692   1.5470  -1.6288   C.3       1 1      0.0000
    11 HC       0.9120   1.8716  -2.6687   H         1 1      0.0000
    12 HB      -0.0383   1.3328  -1.2589   H         1 1      0.0000
    13 HA       1.4617   2.3063  -1.0199   H         1 1      0.0000
    14 H12B     2.0331   1.4880   0.6901   H         1 1      0.0000
    15 O1       1.3527   0.4180   2.9774   O.3       1 1      0.0000
    16 H11      1.5249  -1.3353   1.8016   H         1 1      0.0000
    17 OH1      0.6789   0.0717   3.6209   H         1 1      0.0000
    18 C10     -0.1204  -0.1740   1.0433   C.ar      1 1      0.0000
    19 C9      -0.6252  -1.2422   0.2873   C.ar      1 1      0.0000
    20 C5      -0.8779   0.9988   1.1948   C.ar      1 1      0.0000
    21 C8      -1.8717  -1.1371  -0.3322   C.ar      1 1      0.0000
    22 H9      -0.0540  -2.1602   0.1819   H         1 1      0.0000
    23 C6      -2.1278   1.1101   0.5887   C.ar      1 1      0.0000
    24 H5      -0.5023   1.8163   1.8016   H         1 1      0.0000
    25 C7      -2.6004   0.0399  -0.1720   C.ar      1 1      0.0000
    26 H8      -2.2807  -1.9483  -0.9208   H         1 1      0.0000
    27 H6      -2.7320   2.0017   0.6954   H         1 1      0.0000
    28 NO      -3.9179   0.1567  -0.8227   N.pl3     1 1      0.0000
    29 ON2     -4.5720   1.2515  -0.6609   O.2       1 1      0.0000
    30 ON1     -4.3353  -0.8450  -1.5126   O.2       1 1      0.0000
    31 C15      4.7775  -1.2612  -0.6466   C.3       1 1      0.0000
    32 H15A     5.0984  -0.8505   0.3183   H         1 1      0.0000
    33 H15C     5.2611  -2.2367  -0.7543   H         1 1      0.0000
    34 H15B     5.1535  -0.6326  -1.4633   H         1 1      0.0000
@<TRIPOS>BOND
     1     1     2    1
     2     1    15    1
     3     1    16    1
     4     1    18    1
     5     2     3    1
     6     2     4    1
     7     2    14    1
     8     4     5    1
     9     4     8    2
    10     5     6    1
    11     5     7    1
    12     5    31    1
    13     8     9    1
    14     8    10    1
    15    10    11    1
    16    10    12    1
    17    10    13    1
    18    15    17    1
    19    18    19   ar
    20    18    20   ar
    21    19    21   ar
    22    19    22    1
    23    20    23   ar
    24    20    24    1
    25    21    25   ar
    26    21    26    1
    27    23    25   ar
    28    23    27    1
    29    25    28    1
    30    28    29   un
    31    28    30   un
    32    31    32    1
    33    31    33    1
    34    31    34    1
@<TRIPOS>SUBSTRUCTURE
     1 1           1 GROUP             0 ****  ****    0  
@<TRIPOS>MOLECULE
Molecule Name_00016
    34    34     1     0     0
SMALL
NO_CHARGES
****
Generated from the CSD

@<TRIPOS>ATOM
     1 C11      1.1736   1.0335   1.3964   C.3       1 1      0.0000
     2 C12      2.2520   1.0453   0.2686   C.3       1 1      0.0000
     3 H12A     3.1768   1.4540   0.6817   H         1 1      0.0000
     4 C13      2.4531  -0.3369  -0.2886   C.2       1 1      0.0000
     5 C14      1.5966  -0.7763  -1.4475   C.3       1 1      0.0000
     6 H14B     0.5497  -0.5823  -1.1683   H         1 1      0.0000
     7 H14A     1.6853  -1.8709  -1.5157   H         1 1      0.0000
     8 N        3.3435  -1.1484   0.2037   N.pl3     1 1      0.0000
     9 HN       3.4209  -2.0754  -0.2248   H         1 1      0.0000
    10 C        4.2480  -0.8981   1.3711   C.3       1 1      0.0000
    11 HC       4.7644  -1.8328   1.5939   H         1 1      0.0000
    12 HB       4.9830  -0.1294   1.1127   H         1 1      0.0000
    13 HA       3.6349  -0.5908   2.2192   H         1 1      0.0000
    14 H12B     1.9052   1.7104  -0.5296   H         1 1      0.0000
    15 O1       1.1719   2.4343   1.8791   O.3       1 1      0.0000
    16 H11      1.4926   0.3664   2.2068   H         1 1      0.0000
    17 OH1      0.4856   2.5681   2.5855   H         1 1      0.0000
    18 C10     -0.1705   0.5854   0.8589   C.ar      1 1      0.0000
    19 C9      -0.5988  -0.7345   1.0636   C.ar      1 1      0.0000
    20 C5      -0.9763   1.4813   0.1376   C.ar      1 1      0.0000
    21 C8      -1.8166  -1.1676   0.5361   C.ar      1 1      0.0000
    22 H9       0.0096  -1.4279   1.6373   H         1 1      0.0000
    23 C6      -2.1983   1.0618  -0.3846   C.ar      1 1      0.0000
    24 H5      -0.6605   2.5105   0.0010   H         1 1      0.0000
    25 C7      -2.5943  -0.2608  -0.1815   C.ar      1 1      0.0000
    26 H8      -2.1668  -2.1815   0.6810   H         1 1      0.0000
    27 H6      -2.8388   1.7353  -0.9392   H         1 1      0.0000
    28 NO      -3.8818  -0.7117  -0.7401   N.pl3     1 1      0.0000
    29 ON2     -4.5820   0.1421  -1.3983   O.2       1 1      0.0000
    30 ON1     -4.2285  -1.9327  -0.5340   O.2       1 1      0.0000
    31 C15      1.9106  -0.1355  -2.8113   C.3       1 1      0.0000
    32 H15A     2.9327  -0.3561  -3.1419   H         1 1      0.0000
    33 H15C     1.2353  -0.5492  -3.5663   H         1 1      0.0000
    34 H15B     1.7466   0.9493  -2.8042   H         1 1      0.0000
@<TRIPOS>BOND
     1     1     2    1
     2     1    15    1
     3     1    16    1
     4     1    18    1
     5     2     3    1
     6     2     4    1
     7     2    14    1
     8     4     5    1
     9     4     8    2
    10     5     6    1
    11     5     7    1
    12     5    31    1
    13     8     9    1
    14     8    10    1
    15    10    11    1
    16    10    12    1
    17    10    13    1
    18    15    17    1
    19    18    19   ar
    20    18    20   ar
    21    19    21   ar
    22    19    22    1
    23    20    23   ar
    24    20    24    1
    25    21    25   ar
    26    21    26    1
    27    23    25   ar
    28    23    27    1
    29    25    28    1
    30    28    29   un
    31    28    30   un
    32    31    32    1
    33    31    33    1
    34    31    34    1
@<TRIPOS>SUBSTRUCTURE
     1 1           1 GROUP             0 ****  ****    0  
@<TRIPOS>MOLECULE
Molecule Name_00017
    34    34     1     0     0
SMALL
NO_CHARGES
****
Generated from the CSD

@<TRIPOS>ATOM
     1 C11      1.0741  -0.0077  -0.6086   C.3       1 1      0.0000
     2 C12      1.8194  -0.0041   0.7624   C.3       1 1      0.0000
     3 H12A     1.6205  -0.9536   1.2643   H         1 1      0.0000
     4 C13      3.2926   0.2247   0.5656   C.2       1 1      0.0000
     5 C14      4.2417  -0.9071   0.8618   C.3       1 1      0.0000
     6 H14B     4.0078  -1.2692   1.8747   H         1 1      0.0000
     7 H14A     5.2498  -0.4714   0.9302   H         1 1      0.0000
     8 N        3.7559   1.3666   0.1469   N.pl3     1 1      0.0000
     9 HN       4.7712   1.4499   0.0402   H         1 1      0.0000
    10 C        2.9701   2.6052  -0.1558   C.3       1 1      0.0000
    11 HC       3.6685   3.4432  -0.1694   H         1 1      0.0000
    12 HB       2.4947   2.5124  -1.1372   H         1 1      0.0000
    13 HA       2.2285   2.7410   0.6324   H         1 1      0.0000
    14 H12B     1.4061   0.8047   1.3745   H         1 1      0.0000
    15 O1       1.5883  -1.2289  -1.2713   O.3       1 1      0.0000
    16 H11      1.3649   0.8758  -1.1903   H         1 1      0.0000
    17 OH1      1.1522  -1.3674  -2.1537   H         1 1      0.0000
    18 C10     -0.4282  -0.0230  -0.4107   C.ar      1 1      0.0000
    19 C9      -1.1549   1.1739  -0.4928   C.ar      1 1      0.0000
    20 C5      -1.0898  -1.2279  -0.1232   C.ar      1 1      0.0000
    21 C8      -2.5331   1.1756  -0.2707   C.ar      1 1      0.0000
    22 H9      -0.6534   2.1068  -0.7343   H         1 1      0.0000
    23 C6      -2.4668  -1.2387   0.0903   C.ar      1 1      0.0000
    24 H5      -0.5348  -2.1597  -0.0861   H         1 1      0.0000
    25 C7      -3.1646  -0.0323   0.0196   C.ar      1 1      0.0000
    26 H8      -3.1139   2.0872  -0.3282   H         1 1      0.0000
    27 H6      -2.9994  -2.1555   0.3082   H         1 1      0.0000
    28 NO      -4.6199  -0.0374   0.2541   N.pl3     1 1      0.0000
    29 ON2     -5.1807  -1.1631   0.5202   O.2       1 1      0.0000
    30 ON1     -5.2423   1.0852   0.1767   O.2       1 1      0.0000
    31 C15      4.2402  -2.0795  -0.1355   C.3       1 1      0.0000
    32 H15A     4.4706  -1.7497  -1.1557   H         1 1      0.0000
    33 H15C     5.0165  -2.7954   0.1508   H         1 1      0.0000
    34 H15B     3.2895  -2.6270  -0.1260   H         1 1      0.0000
@<TRIPOS>BOND
     1     1     2    1
     2     1    15    1
     3     1    16    1
     4     1    18    1
     5     2     3    1
     6     2     4    1
     7     2    14    1
     8     4     5    1
     9     4     8    2
    10     5     6    1
    11     5     7    1
    12     5    31    1
    13     8     9    1
    14     8    10    1
    15    10    11    1
    16    10    12    1
    17    10    13    1
    18    15    17    1
    19    18    19   ar
    20    18    20   ar
    21    19    21   ar
    22    19    22    1
    23    20    23   ar
    24    20    24    1
    25    21    25   ar
    26    21    26    1
    27    23    25   ar
    28    23    27    1
    29    25    28    1
    30    28    29   un
    31    28    30   un
    32    31    32    1
    33    31    33    1
    34    31    34    1
@<TRIPOS>SUBSTRUCTURE
     1 1           1 GROUP             0 ****  ****    0  
@<TRIPOS>MOLECULE
Molecule Name_00018
    34    34     1     0     0
SMALL
NO_CHARGES
****
Generated from the CSD

@<TRIPOS>ATOM
     1 C11      0.9482  -0.6041   0.4658   C.3       1 1      0.0000
     2 C12      1.7226   0.1302  -0.6727   C.3       1 1      0.0000
     3 H12A     1.3626   1.1601  -0.7244   H         1 1      0.0000
     4 C13      3.2056   0.0693  -0.4315   C.2       1 1      0.0000
     5 C14      3.8370  -1.2736  -0.1716   C.3       1 1      0.0000
     6 H14B     3.5822  -1.9216  -1.0241   H         1 1      0.0000
     7 H14A     3.3185  -1.7100   0.6953   H         1 1      0.0000
     8 N        3.9440   1.1409  -0.4457   N.pl3     1 1      0.0000
     9 HN       4.9459   1.0224  -0.2693   H         1 1      0.0000
    10 C        3.4852   2.5527  -0.6458   C.3       1 1      0.0000
    11 HC       4.3397   3.2057  -0.4627   H         1 1      0.0000
    12 HB       3.1386   2.6877  -1.6750   H         1 1      0.0000
    13 HA       2.6890   2.7584   0.0707   H         1 1      0.0000
    14 H12B     1.4894  -0.3664  -1.6207   H         1 1      0.0000
    15 O1       1.4936   0.0107   1.6985   O.3       1 1      0.0000
    16 H11      1.1927  -1.6735   0.4498   H         1 1      0.0000
    17 OH1      1.0438  -0.3513   2.5077   H         1 1      0.0000
    18 C10     -0.5478  -0.4152   0.3155   C.ar      1 1      0.0000
    19 C9      -1.3967  -1.5317   0.3282   C.ar      1 1      0.0000
    20 C5      -1.0825   0.8716   0.1408   C.ar      1 1      0.0000
    21 C8      -2.7717  -1.3707   0.1486   C.ar      1 1      0.0000
    22 H9      -0.9931  -2.5284   0.4827   H         1 1      0.0000
    23 C6      -2.4548   1.0441  -0.0293   C.ar      1 1      0.0000
    24 H5      -0.4316   1.7397   0.1579   H         1 1      0.0000
    25 C7      -3.2762  -0.0840  -0.0295   C.ar      1 1      0.0000
    26 H8      -3.4456  -2.2179   0.1542   H         1 1      0.0000
    27 H6      -2.8905   2.0261  -0.1604   H         1 1      0.0000
    28 NO      -4.7274   0.0928  -0.2185   N.pl3     1 1      0.0000
    29 ON2     -5.1699   1.2888  -0.3809   O.2       1 1      0.0000
    30 ON1     -5.4648  -0.9606  -0.2080   O.2       1 1      0.0000
    31 C15      5.3579  -1.2798   0.0652   C.3       1 1      0.0000
    32 H15A     5.6383  -0.6839   0.9420   H         1 1      0.0000
    33 H15C     5.6869  -2.3052   0.2584   H         1 1      0.0000
    34 H15B     5.9131  -0.9326  -0.8151   H         1 1      0.0000
@<TRIPOS>BOND
     1     1     2    1
     2     1    15    1
     3     1    16    1
     4     1    18    1
     5     2     3    1
     6     2     4    1
     7     2    14    1
     8     4     5    1
     9     4     8    2
    10     5     6    1
    11     5     7    1
    12     5    31    1
    13     8     9    1
    14     8    10    1
    15    10    11    1
    16    10    12    1
    17    10    13    1
    18    15    17    1
    19    18    19   ar
    20    18    20   ar
    21    19    21   ar
    22    19    22    1
    23    20    23   ar
    24    20    24    1
    25    21    25   ar
    26    21    26    1
    27    23    25   ar
    28    23    27    1
    29    25    28    1
    30    28    29   un
    31    28    30   un
    32    31    32    1
    33    31    33    1
    34    31    34    1
@<TRIPOS>SUBSTRUCTURE
     1 1           1 GROUP             0 ****  ****    0  
@<TRIPOS>MOLECULE
Molecule Name_00019
    34    34     1     0     0
SMALL
NO_CHARGES
****
Generated from the CSD

@<TRIPOS>ATOM
     1 C11      0.9544   0.4014  -0.5171   C.3       1 1      0.0000
     2 C12      1.7274  -0.2692   0.6609   C.3       1 1      0.0000
     3 H12A     1.3544  -1.2888   0.7806   H         1 1      0.0000
     4 C13      3.2093  -0.2438   0.4068   C.2       1 1      0.0000
     5 C14      3.9166  -1.5484   0.1472   C.3       1 1      0.0000
     6 H14B     3.4114  -2.0264  -0.7060   H         1 1      0.0000
     7 H14A     3.7161  -2.1999   1.0109   H         1 1      0.0000
     8 N        3.8823   0.8702   0.4043   N.pl3     1 1      0.0000
     9 HN       4.8893   0.8092   0.2277   H         1 1      0.0000
    10 C        3.3564   2.2451   0.6808   C.3       1 1      0.0000
    11 HC       4.2140   2.8988   0.8453   H         1 1      0.0000
    12 HB       2.7857   2.6042  -0.1812   H         1 1      0.0000
    13 HA       2.7352   2.2001   1.5763   H         1 1      0.0000
    14 H12B     1.5076   0.2899   1.5768   H         1 1      0.0000
    15 O1       1.4828  -0.2980  -1.7116   O.3       1 1      0.0000
    16 H11      1.2130   1.4662  -0.5710   H         1 1      0.0000
    17 OH1      1.0320   0.0177  -2.5393   H         1 1      0.0000
    18 C10     -0.5428   0.2426  -0.3455   C.ar      1 1      0.0000
    19 C9      -1.3772   1.3673  -0.4240   C.ar      1 1      0.0000
    20 C5      -1.0929  -1.0232  -0.0856   C.ar      1 1      0.0000
    21 C8      -2.7528   1.2366  -0.2257   C.ar      1 1      0.0000
    22 H9      -0.9617   2.3466  -0.6444   H         1 1      0.0000
    23 C6      -2.4660  -1.1660   0.1039   C.ar      1 1      0.0000
    24 H5      -0.4535  -1.8993  -0.0515   H         1 1      0.0000
    25 C7      -3.2727  -0.0292   0.0374   C.ar      1 1      0.0000
    26 H8      -3.4156   2.0907  -0.2811   H         1 1      0.0000
    27 H6      -2.9136  -2.1317   0.3003   H         1 1      0.0000
    28 NO      -4.7247  -0.1740   0.2466   N.pl3     1 1      0.0000
    29 ON2     -5.1815  -1.3512   0.4878   O.2       1 1      0.0000
    30 ON1     -5.4483   0.8864   0.1735   O.2       1 1      0.0000
    31 C15      5.4318  -1.4652  -0.1106   C.3       1 1      0.0000
    32 H15A     5.9702  -1.0407   0.7453   H         1 1      0.0000
    33 H15C     5.8254  -2.4742  -0.2659   H         1 1      0.0000
    34 H15B     5.6644  -0.8945  -1.0182   H         1 1      0.0000
@<TRIPOS>BOND
     1     1     2    1
     2     1    15    1
     3     1    16    1
     4     1    18    1
     5     2     3    1
     6     2     4    1
     7     2    14    1
     8     4     5    1
     9     4     8    2
    10     5     6    1
    11     5     7    1
    12     5    31    1
    13     8     9    1
    14     8    10    1
    15    10    11    1
    16    10    12    1
    17    10    13    1
    18    15    17    1
    19    18    19   ar
    20    18    20   ar
    21    19    21   ar
    22    19    22    1
    23    20    23   ar
    24    20    24    1
    25    21    25   ar
    26    21    26    1
    27    23    25   ar
    28    23    27    1
    29    25    28    1
    30    28    29   un
    31    28    30   un
    32    31    32    1
    33    31    33    1
    34    31    34    1
@<TRIPOS>SUBSTRUCTURE
     1 1           1 GROUP             0 ****  ****    0  
@<TRIPOS>MOLECULE
Molecule Name_00020
    34    34     1     0     0
SMALL
NO_CHARGES
****
Generated from the CSD

@<TRIPOS>ATOM
     1 C11      1.1096  -0.6274  -0.3650   C.3       1 1      0.0000
     2 C12      1.8503   0.0643   0.8217   C.3       1 1      0.0000
     3 H12A     1.8369  -0.6141   1.6775   H         1 1      0.0000
     4 C13      3.2527   0.4373   0.4276   C.2       1 1      0.0000
     5 C14      4.3276  -0.6148   0.5144   C.3       1 1      0.0000
     6 H14B     4.2481  -1.0775   1.5101   H         1 1      0.0000
     7 H14A     5.2937  -0.0880   0.5107   H         1 1      0.0000
     8 N        3.5501   1.6355   0.0157   N.pl3     1 1      0.0000
     9 HN       4.5273   1.8171  -0.2318   H         1 1      0.0000
    10 C        2.6261   2.8091  -0.0948   C.3       1 1      0.0000
    11 HC       3.2314   3.6827  -0.3407   H         1 1      0.0000
    12 HB       1.8986   2.6346  -0.8935   H         1 1      0.0000
    13 HA       2.1322   2.9474   0.8678   H         1 1      0.0000
    14 H12B     1.2964   0.9706   1.0891   H         1 1      0.0000
    15 O1       1.5109  -2.0475  -0.2340   O.3       1 1      0.0000
    16 H11      1.4808  -0.2273  -1.3167   H         1 1      0.0000
    17 OH1      1.0651  -2.6098  -0.9218   H         1 1      0.0000
    18 C10     -0.3880  -0.4184  -0.2672   C.ar      1 1      0.0000
    19 C9      -1.0020   0.5927  -1.0209   C.ar      1 1      0.0000
    20 C5      -1.1575  -1.2188   0.5927   C.ar      1 1      0.0000
    21 C8      -2.3746   0.8197  -0.9055   C.ar      1 1      0.0000
    22 H9      -0.4170   1.2031  -1.7031   H         1 1      0.0000
    23 C6      -2.5301  -1.0071   0.7076   C.ar      1 1      0.0000
    24 H5      -0.6901  -2.0197   1.1564   H         1 1      0.0000
    25 C7      -3.1144   0.0160  -0.0403   C.ar      1 1      0.0000
    26 H8      -2.8695   1.5945  -1.4769   H         1 1      0.0000
    27 H6      -3.1445  -1.6144   1.3596   H         1 1      0.0000
    28 NO      -4.5644   0.2498   0.0851   N.pl3     1 1      0.0000
    29 ON2     -5.2262  -0.5038   0.8893   O.2       1 1      0.0000
    30 ON1     -5.0813   1.1934  -0.6191   O.2       1 1      0.0000
    31 C15      4.3133  -1.6987  -0.5783   C.3       1 1      0.0000
    32 H15A     3.8141  -1.3531  -1.4915   H         1 1      0.0000
    33 H15C     5.3434  -1.9457  -0.8523   H         1 1      0.0000
    34 H15B     3.8496  -2.6296  -0.2289   H         1 1      0.0000
@<TRIPOS>BOND
     1     1     2    1
     2     1    15    1
     3     1    16    1
     4     1    18    1
     5     2     3    1
     6     2     4    1
     7     2    14    1
     8     4     5    1
     9     4     8    2
    10     5     6    1
    11     5     7    1
    12     5    31    1
    13     8     9    1
    14     8    10    1
    15    10    11    1
    16    10    12    1
    17    10    13    1
    18    15    17    1
    19    18    19   ar
    20    18    20   ar
    21    19    21   ar
    22    19    22    1
    23    20    23   ar
    24    20    24    1
    25    21    25   ar
    26    21    26    1
    27    23    25   ar
    28    23    27    1
    29    25    28    1
    30    28    29   un
    31    28    30   un
    32    31    32    1
    33    31    33    1
    34    31    34    1
@<TRIPOS>SUBSTRUCTURE
     1 1           1 GROUP             0 ****  ****    0  
@<TRIPOS>MOLECULE
Molecule Name_00021
    34    34     1     0     0
SMALL
NO_CHARGES
****
Generated from the CSD

@<TRIPOS>ATOM
     1 C11      1.0360  -0.7791   0.2059   C.3       1 1      0.0000
     2 C12      1.8367   0.5347  -0.0550   C.3       1 1      0.0000
     3 H12A     1.7852   1.1529   0.8439   H         1 1      0.0000
     4 C13      3.2574   0.2238  -0.4374   C.2       1 1      0.0000
     5 C14      4.0493  -0.7117   0.4388   C.3       1 1      0.0000
     6 H14B     4.9599  -0.9829  -0.1172   H         1 1      0.0000
     7 H14A     3.4678  -1.6420   0.5235   H         1 1      0.0000
     8 N        3.8070   0.7390  -1.4987   N.pl3     1 1      0.0000
     9 HN       4.7798   0.4846  -1.6935   H         1 1      0.0000
    10 C        3.1889   1.7117  -2.4555   C.3       1 1      0.0000
    11 HC       3.9693   2.0360  -3.1453   H         1 1      0.0000
    12 HB       2.3880   1.2212  -3.0173   H         1 1      0.0000
    13 HA       2.8100   2.5599  -1.8839   H         1 1      0.0000
    14 H12B     1.3510   1.0743  -0.8751   H         1 1      0.0000
    15 O1       1.5162  -1.2101   1.5396   O.3       1 1      0.0000
    16 H11      1.3074  -1.5330  -0.5433   H         1 1      0.0000
    17 OH1      1.0437  -2.0307   1.8416   H         1 1      0.0000
    18 C10     -0.4570  -0.5236   0.1625   C.ar      1 1      0.0000
    19 C9      -1.2778  -1.3201  -0.6494   C.ar      1 1      0.0000
    20 C5      -1.0161   0.5222   0.9149   C.ar      1 1      0.0000
    21 C8      -2.6481  -1.0653  -0.7277   C.ar      1 1      0.0000
    22 H9      -0.8560  -2.1434  -1.2190   H         1 1      0.0000
    23 C6      -2.3844   0.7786   0.8517   C.ar      1 1      0.0000
    24 H5      -0.3882   1.1227   1.5651   H         1 1      0.0000
    25 C7      -3.1769  -0.0174   0.0236   C.ar      1 1      0.0000
    26 H8      -3.3004  -1.6665  -1.3480   H         1 1      0.0000
    27 H6      -2.8388   1.5754   1.4262   H         1 1      0.0000
    28 NO      -4.6233   0.2560  -0.0538   N.pl3     1 1      0.0000
    29 ON2     -5.0885   1.2275   0.6480   O.2       1 1      0.0000
    30 ON1     -5.3341  -0.4951  -0.8180   O.2       1 1      0.0000
    31 C15      4.4170  -0.1899   1.8393   C.3       1 1      0.0000
    32 H15A     3.5270   0.0396   2.4376   H         1 1      0.0000
    33 H15C     4.9712  -0.9649   2.3771   H         1 1      0.0000
    34 H15B     5.0720   0.6890   1.7925   H         1 1      0.0000
@<TRIPOS>BOND
     1     1     2    1
     2     1    15    1
     3     1    16    1
     4     1    18    1
     5     2     3    1
     6     2     4    1
     7     2    14    1
     8     4     5    1
     9     4     8    2
    10     5     6    1
    11     5     7    1
    12     5    31    1
    13     8     9    1
    14     8    10    1
    15    10    11    1
    16    10    12    1
    17    10    13    1
    18    15    17    1
    19    18    19   ar
    20    18    20   ar
    21    19    21   ar
    22    19    22    1
    23    20    23   ar
    24    20    24    1
    25    21    25   ar
    26    21    26    1
    27    23    25   ar
    28    23    27    1
    29    25    28    1
    30    28    29   un
    31    28    30   un
    32    31    32    1
    33    31    33    1
    34    31    34    1
@<TRIPOS>SUBSTRUCTURE
     1 1           1 GROUP             0 ****  ****    0  
@<TRIPOS>MOLECULE
Molecule Name_00022
    34    34     1     0     0
SMALL
NO_CHARGES
****
Generated from the CSD

@<TRIPOS>ATOM
     1 C11      1.0049  -0.3255   0.7368   C.3       1 1      0.0000
     2 C12      1.8417   0.3293  -0.4060   C.3       1 1      0.0000
     3 H12A     1.6056   1.3952  -0.4375   H         1 1      0.0000
     4 C13      3.3108   0.0896  -0.1930   C.2       1 1      0.0000
     5 C14      3.8958  -1.2267  -0.6345   C.3       1 1      0.0000
     6 H14B     3.2764  -2.0212  -0.1910   H         1 1      0.0000
     7 H14A     4.8810  -1.3180  -0.1530   H         1 1      0.0000
     8 N        4.0764   0.9877   0.3558   N.pl3     1 1      0.0000
     9 HN       5.0664   0.7523   0.4722   H         1 1      0.0000
    10 C        3.6630   2.3254   0.8879   C.3       1 1      0.0000
    11 HC       4.5717   2.8896   1.1024   H         1 1      0.0000
    12 HB       3.0737   2.8581   0.1351   H         1 1      0.0000
    13 HA       3.0888   2.1675   1.8017   H         1 1      0.0000
    14 H12B     1.5354  -0.1218  -1.3560   H         1 1      0.0000
    15 O1       1.4048   0.4474   1.9359   O.3       1 1      0.0000
    16 H11      1.3029  -1.3741   0.8597   H         1 1      0.0000
    17 OH1      0.9021   0.1467   2.7390   H         1 1      0.0000
    18 C10     -0.4789  -0.2428   0.4403   C.ar      1 1      0.0000
    19 C9      -1.4044  -0.7492   1.3647   C.ar      1 1      0.0000
    20 C5      -0.9270   0.3183  -0.7667   C.ar      1 1      0.0000
    21 C8      -2.7708  -0.7150   1.0812   C.ar      1 1      0.0000
    22 H9      -1.0668  -1.1667   2.3091   H         1 1      0.0000
    23 C6      -2.2895   0.3663  -1.0548   C.ar      1 1      0.0000
    24 H5      -0.2154   0.7357  -1.4716   H         1 1      0.0000
    25 C7      -3.1890  -0.1591  -0.1263   C.ar      1 1      0.0000
    26 H8      -3.5028  -1.1004   1.7793   H         1 1      0.0000
    27 H6      -2.6591   0.7985  -1.9758   H         1 1      0.0000
    28 NO      -4.6307  -0.1190  -0.4311   N.pl3     1 1      0.0000
    29 ON2     -4.9930   0.3983  -1.5508   O.2       1 1      0.0000
    30 ON1     -5.4406  -0.6029   0.4427   O.2       1 1      0.0000
    31 C15      4.0287  -1.4410  -2.1529   C.3       1 1      0.0000
    32 H15A     4.6844  -0.6939  -2.6161   H         1 1      0.0000
    33 H15C     4.4800  -2.4201  -2.3391   H         1 1      0.0000
    34 H15B     3.0534  -1.4443  -2.6552   H         1 1      0.0000
@<TRIPOS>BOND
     1     1     2    1
     2     1    15    1
     3     1    16    1
     4     1    18    1
     5     2     3    1
     6     2     4    1
     7     2    14    1
     8     4     5    1
     9     4     8    2
    10     5     6    1
    11     5     7    1
    12     5    31    1
    13     8     9    1
    14     8    10    1
    15    10    11    1
    16    10    12    1
    17    10    13    1
    18    15    17    1
    19    18    19   ar
    20    18    20   ar
    21    19    21   ar
    22    19    22    1
    23    20    23   ar
    24    20    24    1
    25    21    25   ar
    26    21    26    1
    27    23    25   ar
    28    23    27    1
    29    25    28    1
    30    28    29   un
    31    28    30   un
    32    31    32    1
    33    31    33    1
    34    31    34    1
@<TRIPOS>SUBSTRUCTURE
     1 1           1 GROUP             0 ****  ****    0  
@<TRIPOS>MOLECULE
Molecule Name_00023
    34    34     1     0     0
SMALL
NO_CHARGES
****
Generated from the CSD

@<TRIPOS>ATOM
     1 C11      1.0820  -0.3114   0.4643   C.3       1 1      0.0000
     2 C12      1.8125   0.5568  -0.6070   C.3       1 1      0.0000
     3 H12A     1.5419   1.6024  -0.4448   H         1 1      0.0000
     4 C13      3.3000   0.3481  -0.5355   C.2       1 1      0.0000
     5 C14      3.8930  -0.8458  -1.2375   C.3       1 1      0.0000
     6 H14B     4.9758  -0.6667  -1.3223   H         1 1      0.0000
     7 H14A     3.5108  -0.8344  -2.2692   H         1 1      0.0000
     8 N        4.0743   1.1708   0.1106   N.pl3     1 1      0.0000
     9 HN       5.0770   0.9622   0.1191   H         1 1      0.0000
    10 C        3.6583   2.3777   0.8941   C.3       1 1      0.0000
    11 HC       4.5592   2.9493   1.1215   H         1 1      0.0000
    12 HB       2.9792   2.9925   0.2955   H         1 1      0.0000
    13 HA       3.1798   2.0399   1.8143   H         1 1      0.0000
    14 H12B     1.4518   0.2548  -1.5962   H         1 1      0.0000
    15 O1       1.5462   0.2693   1.7458   O.3       1 1      0.0000
    16 H11      1.4192  -1.3527   0.3896   H         1 1      0.0000
    17 OH1      1.1132  -0.1802   2.5195   H         1 1      0.0000
    18 C10     -0.4214  -0.2426   0.2870   C.ar      1 1      0.0000
    19 C9      -1.2608  -0.9314   1.1748   C.ar      1 1      0.0000
    20 C5      -0.9736   0.4897  -0.7765   C.ar      1 1      0.0000
    21 C8      -2.6449  -0.9077   0.9943   C.ar      1 1      0.0000
    22 H9      -0.8424  -1.4838   2.0115   H         1 1      0.0000
    23 C6      -2.3545   0.5281  -0.9596   C.ar      1 1      0.0000
    24 H5      -0.3286   1.0461  -1.4487   H         1 1      0.0000
    25 C7      -3.1672  -0.1792  -0.0726   C.ar      1 1      0.0000
    26 H8      -3.3117  -1.4322   1.6666   H         1 1      0.0000
    27 H6      -2.8036   1.0897  -1.7686   H         1 1      0.0000
    28 NO      -4.6280  -0.1492  -0.2679   N.pl3     1 1      0.0000
    29 ON2     -5.0869   0.5293  -1.2587   O.2       1 1      0.0000
    30 ON1     -5.3566  -0.8027   0.5660   O.2       1 1      0.0000
    31 C15      3.6300  -2.2184  -0.5925   C.3       1 1      0.0000
    32 H15A     2.6860  -2.6582  -0.9362   H         1 1      0.0000
    33 H15C     4.4273  -2.9095  -0.8816   H         1 1      0.0000
    34 H15B     3.6408  -2.1674   0.5033   H         1 1      0.0000
@<TRIPOS>BOND
     1     1     2    1
     2     1    15    1
     3     1    16    1
     4     1    18    1
     5     2     3    1
     6     2     4    1
     7     2    14    1
     8     4     5    1
     9     4     8    2
    10     5     6    1
    11     5     7    1
    12     5    31    1
    13     8     9    1
    14     8    10    1
    15    10    11    1
    16    10    12    1
    17    10    13    1
    18    15    17    1
    19    18    19   ar
    20    18    20   ar
    21    19    21   ar
    22    19    22    1
    23    20    23   ar
    24    20    24    1
    25    21    25   ar
    26    21    26    1
    27    23    25   ar
    28    23    27    1
    29    25    28    1
    30    28    29   un
    31    28    30   un
    32    31    32    1
    33    31    33    1
    34    31    34    1
@<TRIPOS>SUBSTRUCTURE
     1 1           1 GROUP             0 ****  ****    0  
@<TRIPOS>MOLECULE
Molecule Name_00024
    34    34     1     0     0
SMALL
NO_CHARGES
****
Generated from the CSD

@<TRIPOS>ATOM
     1 C11      1.0031  -0.7262  -0.4060   C.3       1 1      0.0000
     2 C12      1.8517   0.4129   0.2402   C.3       1 1      0.0000
     3 H12A     1.7103   0.3750   1.3226   H         1 1      0.0000
     4 C13      3.3006   0.2760  -0.1381   C.2       1 1      0.0000
     5 C14      4.1778  -0.6257   0.6909   C.3       1 1      0.0000
     6 H14B     5.0972  -0.8040   0.1125   H         1 1      0.0000
     7 H14A     3.6723  -1.6013   0.7486   H         1 1      0.0000
     8 N        3.8030   0.9115  -1.1566   N.pl3     1 1      0.0000
     9 HN       4.7989   0.7723  -1.3514   H         1 1      0.0000
    10 C        3.0955   1.8732  -2.0611   C.3       1 1      0.0000
    11 HC       3.8440   2.3197  -2.7171   H         1 1      0.0000
    12 HB       2.3555   1.3387  -2.6648   H         1 1      0.0000
    13 HA       2.6247   2.6397  -1.4443   H         1 1      0.0000
    14 H12B     1.4712   1.3726  -0.1256   H         1 1      0.0000
    15 O1       1.4844  -1.9434   0.2881   O.3       1 1      0.0000
    16 H11      1.2341  -0.7982  -1.4761   H         1 1      0.0000
    17 OH1      0.9839  -2.7479  -0.0127   H         1 1      0.0000
    18 C10     -0.4790  -0.4758  -0.2143   C.ar      1 1      0.0000
    19 C9      -1.4123  -1.3966  -0.7130   C.ar      1 1      0.0000
    20 C5      -0.9195   0.6859   0.4404   C.ar      1 1      0.0000
    21 C8      -2.7802  -1.1533  -0.5777   C.ar      1 1      0.0000
    22 H9      -1.0794  -2.3071  -1.2031   H         1 1      0.0000
    23 C6      -2.2828   0.9332   0.5896   C.ar      1 1      0.0000
    24 H5      -0.2000   1.3865   0.8515   H         1 1      0.0000
    25 C7      -3.1912   0.0101   0.0700   C.ar      1 1      0.0000
    26 H8      -3.5183  -1.8494  -0.9552   H         1 1      0.0000
    27 H6      -2.6461   1.8187   1.0949   H         1 1      0.0000
    28 NO      -4.6344   0.2722   0.2171   N.pl3     1 1      0.0000
    29 ON2     -4.9898   1.3516   0.8180   O.2       1 1      0.0000
    30 ON1     -5.4521  -0.5961  -0.2635   O.2       1 1      0.0000
    31 C15      4.5273  -0.1281   2.1049   C.3       1 1      0.0000
    32 H15A     3.6324   0.0087   2.7238   H         1 1      0.0000
    33 H15C     5.1494  -0.8763   2.6052   H         1 1      0.0000
    34 H15B     5.1108   0.8007   2.0821   H         1 1      0.0000
@<TRIPOS>BOND
     1     1     2    1
     2     1    15    1
     3     1    16    1
     4     1    18    1
     5     2     3    1
     6     2     4    1
     7     2    14    1
     8     4     5    1
     9     4     8    2
    10     5     6    1
    11     5     7    1
    12     5    31    1
    13     8     9    1
    14     8    10    1
    15    10    11    1
    16    10    12    1
    17    10    13    1
    18    15    17    1
    19    18    19   ar
    20    18    20   ar
    21    19    21   ar
    22    19    22    1
    23    20    23   ar
    24    20    24    1
    25    21    25   ar
    26    21    26    1
    27    23    25   ar
    28    23    27    1
    29    25    28    1
    30    28    29   un
    31    28    30   un
    32    31    32    1
    33    31    33    1
    34    31    34    1
@<TRIPOS>SUBSTRUCTURE
     1 1           1 GROUP             0 ****  ****    0  
@<TRIPOS>MOLECULE
Molecule Name_00025
    34    34     1     0     0
SMALL
NO_CHARGES
****
Generated from the CSD

@<TRIPOS>ATOM
     1 C11      1.0258  -0.0400   0.7955   C.3       1 1      0.0000
     2 C12      1.8255   0.2168  -0.5197   C.3       1 1      0.0000
     3 H12A     1.5551   1.2047  -0.8990   H         1 1      0.0000
     4 C13      3.3043   0.0994  -0.2737   C.2       1 1      0.0000
     5 C14      3.8259  -1.1489   0.3891   C.3       1 1      0.0000
     6 H14B     3.2556  -1.2831   1.3210   H         1 1      0.0000
     7 H14A     4.8590  -0.9379   0.7038   H         1 1      0.0000
     8 N        4.1310   1.0427  -0.6211   N.pl3     1 1      0.0000
     9 HN       5.1238   0.8943  -0.4181   H         1 1      0.0000
    10 C        3.7889   2.3590  -1.2486   C.3       1 1      0.0000
    11 HC       4.7012   2.9565  -1.2786   H         1 1      0.0000
    12 HB       3.4248   2.2003  -2.2684   H         1 1      0.0000
    13 HA       3.0348   2.8472  -0.6301   H         1 1      0.0000
    14 H12B     1.5206  -0.5332  -1.2574   H         1 1      0.0000
    15 O1       1.4177   1.0985   1.6588   O.3       1 1      0.0000
    16 H11      1.3587  -0.9796   1.2537   H         1 1      0.0000
    17 OH1      0.9360   1.0705   2.5279   H         1 1      0.0000
    18 C10     -0.4638  -0.0985   0.5237   C.ar      1 1      0.0000
    19 C9      -0.9978  -1.1690  -0.2088   C.ar      1 1      0.0000
    20 C5      -1.3057   0.9272   0.9833   C.ar      1 1      0.0000
    21 C8      -2.3624  -1.2096  -0.4997   C.ar      1 1      0.0000
    22 H9      -0.3563  -1.9763  -0.5507   H         1 1      0.0000
    23 C6      -2.6711   0.8910   0.7068   C.ar      1 1      0.0000
    24 H5      -0.9002   1.7425   1.5735   H         1 1      0.0000
    25 C7      -3.1752  -0.1760  -0.0379   C.ar      1 1      0.0000
    26 H8      -2.7962  -2.0253  -1.0637   H         1 1      0.0000
    27 H6      -3.3405   1.6671   1.0548   H         1 1      0.0000
    28 NO      -4.6173  -0.2137  -0.3408   N.pl3     1 1      0.0000
    29 ON2     -5.3473   0.7505   0.0954   O.2       1 1      0.0000
    30 ON1     -5.0596  -1.2102  -1.0225   O.2       1 1      0.0000
    31 C15      3.7831  -2.4380  -0.4508   C.3       1 1      0.0000
    32 H15A     4.3869  -2.3531  -1.3624   H         1 1      0.0000
    33 H15C     4.2034  -3.2617   0.1340   H         1 1      0.0000
    34 H15B     2.7569  -2.7278  -0.7086   H         1 1      0.0000
@<TRIPOS>BOND
     1     1     2    1
     2     1    15    1
     3     1    16    1
     4     1    18    1
     5     2     3    1
     6     2     4    1
     7     2    14    1
     8     4     5    1
     9     4     8    2
    10     5     6    1
    11     5     7    1
    12     5    31    1
    13     8     9    1
    14     8    10    1
    15    10    11    1
    16    10    12    1
    17    10    13    1
    18    15    17    1
    19    18    19   ar
    20    18    20   ar
    21    19    21   ar
    22    19    22    1
    23    20    23   ar
    24    20    24    1
    25    21    25   ar
    26    21    26    1
    27    23    25   ar
    28    23    27    1
    29    25    28    1
    30    28    29   un
    31    28    30   un
    32    31    32    1
    33    31    33    1
    34    31    34    1
@<TRIPOS>SUBSTRUCTURE
     1 1           1 GROUP             0 ****  ****    0  
@<TRIPOS>MOLECULE
Molecule Name_00026
    34    34     1     0     0
SMALL
NO_CHARGES
****
Generated from the CSD

@<TRIPOS>ATOM
     1 C11      1.0748  -0.2588   0.5348   C.3       1 1      0.0000
     2 C12      1.7857   0.1687  -0.7869   C.3       1 1      0.0000
     3 H12A     1.5060   1.2008  -1.0093   H         1 1      0.0000
     4 C13      3.2759   0.0089  -0.6642   C.2       1 1      0.0000
     5 C14      3.8211  -1.3181  -0.2041   C.3       1 1      0.0000
     6 H14B     4.8657  -1.3752  -0.5465   H         1 1      0.0000
     7 H14A     3.2842  -2.0978  -0.7649   H         1 1      0.0000
     8 N        4.0923   0.9822  -0.9471   N.pl3     1 1      0.0000
     9 HN       5.0943   0.8010  -0.8361   H         1 1      0.0000
    10 C        3.7299   2.3706  -1.3765   C.3       1 1      0.0000
    11 HC       4.6479   2.9596  -1.3955   H         1 1      0.0000
    12 HB       3.2928   2.3465  -2.3795   H         1 1      0.0000
    13 HA       3.0293   2.7818  -0.6487   H         1 1      0.0000
    14 H12B     1.4184  -0.4720  -1.5957   H         1 1      0.0000
    15 O1       1.5745   0.7256   1.5228   O.3       1 1      0.0000
    16 H11      1.4019  -1.2658   0.8222   H         1 1      0.0000
    17 OH1      1.1570   0.5817   2.4134   H         1 1      0.0000
    18 C10     -0.4319  -0.2325   0.3749   C.ar      1 1      0.0000
    19 C9      -1.0610  -1.1651  -0.4629   C.ar      1 1      0.0000
    20 C5      -1.1957   0.7370   1.0451   C.ar      1 1      0.0000
    21 C8      -2.4438  -1.1218  -0.6487   C.ar      1 1      0.0000
    22 H9      -0.4794  -1.9304  -0.9691   H         1 1      0.0000
    23 C6      -2.5780   0.7824   0.8742   C.ar      1 1      0.0000
    24 H5      -0.7154   1.4424   1.7153   H         1 1      0.0000
    25 C7      -3.1780  -0.1459   0.0224   C.ar      1 1      0.0000
    26 H8      -2.9504  -1.8309  -1.2909   H         1 1      0.0000
    27 H6      -3.1881   1.5168   1.3840   H         1 1      0.0000
    28 NO      -4.6388  -0.0956  -0.1687   N.pl3     1 1      0.0000
    29 ON2     -5.2952   0.8131   0.4605   O.2       1 1      0.0000
    30 ON1     -5.1698  -0.9655  -0.9528   O.2       1 1      0.0000
    31 C15      3.7402  -1.6040   1.3062   C.3       1 1      0.0000
    32 H15A     2.9272  -2.2989   1.5485   H         1 1      0.0000
    33 H15C     4.6714  -2.0768   1.6324   H         1 1      0.0000
    34 H15B     3.6325  -0.6841   1.8943   H         1 1      0.0000
@<TRIPOS>BOND
     1     1     2    1
     2     1    15    1
     3     1    16    1
     4     1    18    1
     5     2     3    1
     6     2     4    1
     7     2    14    1
     8     4     5    1
     9     4     8    2
    10     5     6    1
    11     5     7    1
    12     5    31    1
    13     8     9    1
    14     8    10    1
    15    10    11    1
    16    10    12    1
    17    10    13    1
    18    15    17    1
    19    18    19   ar
    20    18    20   ar
    21    19    21   ar
    22    19    22    1
    23    20    23   ar
    24    20    24    1
    25    21    25   ar
    26    21    26    1
    27    23    25   ar
    28    23    27    1
    29    25    28    1
    30    28    29   un
    31    28    30   un
    32    31    32    1
    33    31    33    1
    34    31    34    1
@<TRIPOS>SUBSTRUCTURE
     1 1           1 GROUP             0 ****  ****    0  
@<TRIPOS>MOLECULE
Molecule Name_00027
    34    34     1     0     0
SMALL
NO_CHARGES
****
Generated from the CSD

@<TRIPOS>ATOM
     1 C11      1.0271  -0.6367  -0.4501   C.3       1 1      0.0000
     2 C12      1.8602   0.3757   0.3961   C.3       1 1      0.0000
     3 H12A     1.8127   0.0693   1.4434   H         1 1      0.0000
     4 C13      3.2777   0.4438  -0.1013   C.2       1 1      0.0000
     5 C14      4.0385  -0.8438  -0.2828   C.3       1 1      0.0000
     6 H14B     4.9487  -0.6043  -0.8535   H         1 1      0.0000
     7 H14A     3.4352  -1.4828  -0.9449   H         1 1      0.0000
     8 N        3.8505   1.5796  -0.3768   N.pl3     1 1      0.0000
     9 HN       4.8194   1.5480  -0.7073   H         1 1      0.0000
    10 C        3.2652   2.9493  -0.2192   C.3       1 1      0.0000
    11 HC       4.0603   3.6711  -0.4110   H         1 1      0.0000
    12 HB       2.4597   3.0943  -0.9457   H         1 1      0.0000
    13 HA       2.8993   3.0493   0.8035   H         1 1      0.0000
    14 H12B     1.3960   1.3634   0.3026   H         1 1      0.0000
    15 O1       1.4827  -1.9542   0.0517   O.3       1 1      0.0000
    16 H11      1.2897  -0.5370  -1.5106   H         1 1      0.0000
    17 OH1      0.9883  -2.6951  -0.3895   H         1 1      0.0000
    18 C10     -0.4592  -0.4078  -0.2635   C.ar      1 1      0.0000
    19 C9      -1.2331  -1.3639   0.4107   C.ar      1 1      0.0000
    20 C5      -1.0660   0.7470  -0.7836   C.ar      1 1      0.0000
    21 C8      -2.6099  -1.1812   0.5507   C.ar      1 1      0.0000
    22 H9      -0.7679  -2.2501   0.8331   H         1 1      0.0000
    23 C6      -2.4381   0.9437  -0.6404   C.ar      1 1      0.0000
    24 H5      -0.4658   1.5016  -1.2815   H         1 1      0.0000
    25 C7      -3.1887  -0.0300   0.0197   C.ar      1 1      0.0000
    26 H8      -3.2268  -1.9059   1.0665   H         1 1      0.0000
    27 H6      -2.9273   1.8280  -1.0281   H         1 1      0.0000
    28 NO      -4.6420   0.1693   0.1652   N.pl3     1 1      0.0000
    29 ON2     -5.1536   1.2385  -0.3325   O.2       1 1      0.0000
    30 ON1     -5.3113  -0.7382   0.7833   O.2       1 1      0.0000
    31 C15      4.4023  -1.6099   1.0017   C.3       1 1      0.0000
    32 H15A     3.5111  -1.9090   1.5666   H         1 1      0.0000
    33 H15C     4.9328  -2.5285   0.7338   H         1 1      0.0000
    34 H15B     5.0775  -1.0344   1.6472   H         1 1      0.0000
@<TRIPOS>BOND
     1     1     2    1
     2     1    15    1
     3     1    16    1
     4     1    18    1
     5     2     3    1
     6     2     4    1
     7     2    14    1
     8     4     5    1
     9     4     8    2
    10     5     6    1
    11     5     7    1
    12     5    31    1
    13     8     9    1
    14     8    10    1
    15    10    11    1
    16    10    12    1
    17    10    13    1
    18    15    17    1
    19    18    19   ar
    20    18    20   ar
    21    19    21   ar
    22    19    22    1
    23    20    23   ar
    24    20    24    1
    25    21    25   ar
    26    21    26    1
    27    23    25   ar
    28    23    27    1
    29    25    28    1
    30    28    29   un
    31    28    30   un
    32    31    32    1
    33    31    33    1
    34    31    34    1
@<TRIPOS>SUBSTRUCTURE
     1 1           1 GROUP             0 ****  ****    0  
@<TRIPOS>MOLECULE
Molecule Name_00028
    34    34     1     0     0
SMALL
NO_CHARGES
****
Generated from the CSD

@<TRIPOS>ATOM
     1 C11      0.9974  -0.1330  -0.8431   C.3       1 1      0.0000
     2 C12      1.8485  -0.0533   0.4624   C.3       1 1      0.0000
     3 H12A     1.6628  -0.9555   1.0494   H         1 1      0.0000
     4 C13      3.3075   0.1094   0.1364   C.2       1 1      0.0000
     5 C14      4.2438  -1.0307   0.4418   C.3       1 1      0.0000
     6 H14B     5.1738  -0.8444  -0.1168   H         1 1      0.0000
     7 H14A     3.8063  -1.9348  -0.0076   H         1 1      0.0000
     8 N        3.7692   1.2015  -0.4003   N.pl3     1 1      0.0000
     9 HN       4.7748   1.2415  -0.5907   H         1 1      0.0000
    10 C        2.9982   2.4419  -0.7327   C.3       1 1      0.0000
    11 HC       3.7169   3.2535  -0.8546   H         1 1      0.0000
    12 HB       2.4500   2.2982  -1.6689   H         1 1      0.0000
    13 HA       2.3203   2.6553   0.0947   H         1 1      0.0000
    14 H12B     1.5081   0.8125   1.0405   H         1 1      0.0000
    15 O1       1.4246  -1.4157  -1.4491   O.3       1 1      0.0000
    16 H11      1.2651   0.6955  -1.5106   H         1 1      0.0000
    17 OH1      0.9165  -1.6040  -2.2824   H         1 1      0.0000
    18 C10     -0.4844  -0.0844  -0.5300   C.ar      1 1      0.0000
    19 C9      -1.0537   1.0963  -0.0307   C.ar      1 1      0.0000
    20 C5      -1.2828  -1.2245  -0.7169   C.ar      1 1      0.0000
    21 C8      -2.4093   1.1374   0.2998   C.ar      1 1      0.0000
    22 H9      -0.4470   1.9883   0.0980   H         1 1      0.0000
    23 C6      -2.6393  -1.1910  -0.3996   C.ar      1 1      0.0000
    24 H5      -0.8514  -2.1311  -1.1288   H         1 1      0.0000
    25 C7      -3.1782  -0.0094   0.1112   C.ar      1 1      0.0000
    26 H8      -2.8698   2.0373   0.6871   H         1 1      0.0000
    27 H6      -3.2757  -2.0552  -0.5399   H         1 1      0.0000
    28 NO      -4.6106   0.0279   0.4572   N.pl3     1 1      0.0000
    29 ON2     -5.2998  -1.0419   0.2749   O.2       1 1      0.0000
    30 ON1     -5.0858   1.1296   0.9196   O.2       1 1      0.0000
    31 C15      4.5569  -1.2788   1.9282   C.3       1 1      0.0000
    32 H15A     3.6540  -1.5197   2.5023   H         1 1      0.0000
    33 H15C     5.2283  -2.1383   2.0150   H         1 1      0.0000
    34 H15B     5.0752  -0.4280   2.3876   H         1 1      0.0000
@<TRIPOS>BOND
     1     1     2    1
     2     1    15    1
     3     1    16    1
     4     1    18    1
     5     2     3    1
     6     2     4    1
     7     2    14    1
     8     4     5    1
     9     4     8    2
    10     5     6    1
    11     5     7    1
    12     5    31    1
    13     8     9    1
    14     8    10    1
    15    10    11    1
    16    10    12    1
    17    10    13    1
    18    15    17    1
    19    18    19   ar
    20    18    20   ar
    21    19    21   ar
    22    19    22    1
    23    20    23   ar
    24    20    24    1
    25    21    25   ar
    26    21    26    1
    27    23    25   ar
    28    23    27    1
    29    25    28    1
    30    28    29   un
    31    28    30   un
    32    31    32    1
    33    31    33    1
    34    31    34    1
@<TRIPOS>SUBSTRUCTURE
     1 1           1 GROUP             0 ****  ****    0  
@<TRIPOS>MOLECULE
Molecule Name_00029
    34    34     1     0     0
SMALL
NO_CHARGES
****
Generated from the CSD

@<TRIPOS>ATOM
     1 C11      1.2226  -0.2785   1.8287   C.3       1 1      0.0000
     2 C12      2.2857   0.5907   1.0874   C.3       1 1      0.0000
     3 H12A     3.2096   0.5744   1.6697   H         1 1      0.0000
     4 C13      2.5004   0.0874  -0.3132   C.2       1 1      0.0000
     5 C14      2.7981  -1.3758  -0.5135   C.3       1 1      0.0000
     6 H14B     1.9754  -1.9402  -0.0484   H         1 1      0.0000
     7 H14A     3.6905  -1.6072   0.0870   H         1 1      0.0000
     8 N        2.4317   0.8817  -1.3419   N.pl3     1 1      0.0000
     9 HN       2.5931   0.4684  -2.2651   H         1 1      0.0000
    10 C        2.1879   2.3595  -1.3287   C.3       1 1      0.0000
    11 HC       2.3299   2.7257  -2.3464   H         1 1      0.0000
    12 HB       1.1613   2.5632  -1.0091   H         1 1      0.0000
    13 HA       2.9115   2.8195  -0.6546   H         1 1      0.0000
    14 H12B     1.9183   1.6218   1.0491   H         1 1      0.0000
    15 O1       1.1968   0.3049   3.1903   O.3       1 1      0.0000
    16 H11      1.5667  -1.3189   1.8815   H         1 1      0.0000
    17 OH1      0.5170  -0.1450   3.7591   H         1 1      0.0000
    18 C10     -0.1183  -0.2142   1.1258   C.ar      1 1      0.0000
    19 C9      -0.7869  -1.4003   0.7886   C.ar      1 1      0.0000
    20 C5      -0.6808   1.0284   0.7914   C.ar      1 1      0.0000
    21 C8      -2.0024  -1.3512   0.1040   C.ar      1 1      0.0000
    22 H9      -0.3680  -2.3648   1.0613   H         1 1      0.0000
    23 C6      -1.8987   1.0886   0.1168   C.ar      1 1      0.0000
    24 H5      -0.1797   1.9481   1.0750   H         1 1      0.0000
    25 C7      -2.5359  -0.1058  -0.2221   C.ar      1 1      0.0000
    26 H8      -2.5355  -2.2535  -0.1669   H         1 1      0.0000
    27 H6      -2.3544   2.0343  -0.1469   H         1 1      0.0000
    28 NO      -3.8197  -0.0472  -0.9441   N.pl3     1 1      0.0000
    29 ON2     -4.2924   1.1125  -1.2342   O.2       1 1      0.0000
    30 ON1     -4.3914  -1.1606  -1.2393   O.2       1 1      0.0000
    31 C15      3.0054  -1.8387  -1.9668   C.3       1 1      0.0000
    32 H15A     3.8538  -1.3310  -2.4412   H         1 1      0.0000
    33 H15C     3.2305  -2.9094  -1.9738   H         1 1      0.0000
    34 H15B     2.1022  -1.7038  -2.5748   H         1 1      0.0000
@<TRIPOS>BOND
     1     1     2    1
     2     1    15    1
     3     1    16    1
     4     1    18    1
     5     2     3    1
     6     2     4    1
     7     2    14    1
     8     4     5    1
     9     4     8    2
    10     5     6    1
    11     5     7    1
    12     5    31    1
    13     8     9    1
    14     8    10    1
    15    10    11    1
    16    10    12    1
    17    10    13    1
    18    15    17    1
    19    18    19   ar
    20    18    20   ar
    21    19    21   ar
    22    19    22    1
    23    20    23   ar
    24    20    24    1
    25    21    25   ar
    26    21    26    1
    27    23    25   ar
    28    23    27    1
    29    25    28    1
    30    28    29   un
    31    28    30   un
    32    31    32    1
    33    31    33    1
    34    31    34    1
@<TRIPOS>SUBSTRUCTURE
     1 1           1 GROUP             0 ****  ****    0  
@<TRIPOS>MOLECULE
Molecule Name_00030
    34    34     1     0     0
SMALL
NO_CHARGES
****
Generated from the CSD

@<TRIPOS>ATOM
     1 C11      1.0339   0.0802  -0.5780   C.3       1 1      0.0000
     2 C12      1.7633   0.1003   0.8014   C.3       1 1      0.0000
     3 H12A     1.4170  -0.7549   1.3858   H         1 1      0.0000
     4 C13      3.2551   0.0802   0.6137   C.2       1 1      0.0000
     5 C14      3.9401  -1.2506   0.4418   C.3       1 1      0.0000
     6 H14B     3.2469  -2.0217   0.8116   H         1 1      0.0000
     7 H14A     4.7937  -1.2646   1.1360   H         1 1      0.0000
     8 N        3.9555   1.1770   0.5945   N.pl3     1 1      0.0000
     9 HN       4.9675   1.0849   0.4664   H         1 1      0.0000
    10 C        3.4527   2.5745   0.7884   C.3       1 1      0.0000
    11 HC       4.3214   3.2317   0.8476   H         1 1      0.0000
    12 HB       2.8328   2.8674  -0.0646   H         1 1      0.0000
    13 HA       2.8863   2.6081   1.7199   H         1 1      0.0000
    14 H12B     1.4769   1.0179   1.3265   H         1 1      0.0000
    15 O1       1.5931  -1.1214  -1.2402   O.3       1 1      0.0000
    16 H11      1.3037   0.9750  -1.1525   H         1 1      0.0000
    17 OH1      1.1713  -1.2690  -2.1281   H         1 1      0.0000
    18 C10     -0.4694   0.0176  -0.3974   C.ar      1 1      0.0000
    19 C9      -1.2906   0.9431  -1.0581   C.ar      1 1      0.0000
    20 C5      -1.0389  -0.9493   0.4471   C.ar      1 1      0.0000
    21 C8      -2.6729   0.9191  -0.8647   C.ar      1 1      0.0000
    22 H9      -0.8595   1.6814  -1.7283   H         1 1      0.0000
    23 C6      -2.4186  -0.9881   0.6390   C.ar      1 1      0.0000
    24 H5      -0.4090  -1.6839   0.9380   H         1 1      0.0000
    25 C7      -3.2124  -0.0460  -0.0165   C.ar      1 1      0.0000
    26 H8      -3.3258   1.6238  -1.3636   H         1 1      0.0000
    27 H6      -2.8809  -1.7271   1.2807   H         1 1      0.0000
    28 NO      -4.6714  -0.0772   0.1910   N.pl3     1 1      0.0000
    29 ON2     -5.1464  -0.9763   0.9776   O.2       1 1      0.0000
    30 ON1     -5.3827   0.7963  -0.4291   O.2       1 1      0.0000
    31 C15      4.4117  -1.5981  -0.9815   C.3       1 1      0.0000
    32 H15A     4.4853  -0.7077  -1.6174   H         1 1      0.0000
    33 H15C     5.4127  -2.0369  -0.9309   H         1 1      0.0000
    34 H15B     3.7653  -2.3451  -1.4587   H         1 1      0.0000
@<TRIPOS>BOND
     1     1     2    1
     2     1    15    1
     3     1    16    1
     4     1    18    1
     5     2     3    1
     6     2     4    1
     7     2    14    1
     8     4     5    1
     9     4     8    2
    10     5     6    1
    11     5     7    1
    12     5    31    1
    13     8     9    1
    14     8    10    1
    15    10    11    1
    16    10    12    1
    17    10    13    1
    18    15    17    1
    19    18    19   ar
    20    18    20   ar
    21    19    21   ar
    22    19    22    1
    23    20    23   ar
    24    20    24    1
    25    21    25   ar
    26    21    26    1
    27    23    25   ar
    28    23    27    1
    29    25    28    1
    30    28    29   un
    31    28    30   un
    32    31    32    1
    33    31    33    1
    34    31    34    1
@<TRIPOS>SUBSTRUCTURE
     1 1           1 GROUP             0 ****  ****    0  
@<TRIPOS>MOLECULE
Molecule Name_00031
    34    34     1     0     0
SMALL
NO_CHARGES
****
Generated from the CSD

@<TRIPOS>ATOM
     1 C11      1.0234  -0.4580   0.6399   C.3       1 1      0.0000
     2 C12      1.8215   0.2159  -0.5194   C.3       1 1      0.0000
     3 H12A     1.4284   1.2243  -0.6665   H         1 1      0.0000
     4 C13      3.2935   0.2305  -0.2126   C.2       1 1      0.0000
     5 C14      3.9593  -1.0634   0.1774   C.3       1 1      0.0000
     6 H14B     3.3680  -1.4972   0.9983   H         1 1      0.0000
     7 H14A     4.9322  -0.8032   0.6208   H         1 1      0.0000
     8 N        3.9939   1.3254  -0.2799   N.pl3     1 1      0.0000
     9 HN       4.9905   1.2592  -0.0532   H         1 1      0.0000
    10 C        3.4954   2.6991  -0.6086   C.3       1 1      0.0000
    11 HC       4.3175   3.3964  -0.4417   H         1 1      0.0000
    12 HB       3.1903   2.7415  -1.6587   H         1 1      0.0000
    13 HA       2.6614   2.9284   0.0559   H         1 1      0.0000
    14 H12B     1.6482  -0.3605  -1.4344   H         1 1      0.0000
    15 O1       1.4917   0.2700   1.8423   O.3       1 1      0.0000
    16 H11      1.3056  -1.5153   0.7178   H         1 1      0.0000
    17 OH1      1.0193  -0.0459   2.6579   H         1 1      0.0000
    18 C10     -0.4701  -0.3386   0.4132   C.ar      1 1      0.0000
    19 C9      -1.2792  -1.4825   0.4780   C.ar      1 1      0.0000
    20 C5      -1.0411   0.9096   0.1162   C.ar      1 1      0.0000
    21 C8      -2.6496  -1.3886   0.2293   C.ar      1 1      0.0000
    22 H9      -0.8483  -2.4482   0.7266   H         1 1      0.0000
    23 C6      -2.4097   1.0159  -0.1238   C.ar      1 1      0.0000
    24 H5      -0.4224   1.8007   0.0924   H         1 1      0.0000
    25 C7      -3.1904  -0.1395  -0.0698   C.ar      1 1      0.0000
    26 H8      -3.2931  -2.2579   0.2732   H         1 1      0.0000
    27 H6      -2.8733   1.9675  -0.3494   H         1 1      0.0000
    28 NO      -4.6371  -0.0335  -0.3323   N.pl3     1 1      0.0000
    29 ON2     -5.1134   1.1287  -0.6061   O.2       1 1      0.0000
    30 ON1     -5.3369  -1.1104  -0.2700   O.2       1 1      0.0000
    31 C15      4.1511  -2.0992  -0.9448   C.3       1 1      0.0000
    32 H15A     4.7817  -1.7134  -1.7549   H         1 1      0.0000
    33 H15C     4.6580  -2.9794  -0.5382   H         1 1      0.0000
    34 H15B     3.1937  -2.4482  -1.3512   H         1 1      0.0000
@<TRIPOS>BOND
     1     1     2    1
     2     1    15    1
     3     1    16    1
     4     1    18    1
     5     2     3    1
     6     2     4    1
     7     2    14    1
     8     4     5    1
     9     4     8    2
    10     5     6    1
    11     5     7    1
    12     5    31    1
    13     8     9    1
    14     8    10    1
    15    10    11    1
    16    10    12    1
    17    10    13    1
    18    15    17    1
    19    18    19   ar
    20    18    20   ar
    21    19    21   ar
    22    19    22    1
    23    20    23   ar
    24    20    24    1
    25    21    25   ar
    26    21    26    1
    27    23    25   ar
    28    23    27    1
    29    25    28    1
    30    28    29   un
    31    28    30   un
    32    31    32    1
    33    31    33    1
    34    31    34    1
@<TRIPOS>SUBSTRUCTURE
     1 1           1 GROUP             0 ****  ****    0  
@<TRIPOS>MOLECULE
Molecule Name_00032
    34    34     1     0     0
SMALL
NO_CHARGES
****
Generated from the CSD

@<TRIPOS>ATOM
     1 C11      1.0781  -0.5388   0.3358   C.3       1 1      0.0000
     2 C12      1.7923   0.2701  -0.7915   C.3       1 1      0.0000
     3 H12A     1.4071   1.2920  -0.7782   H         1 1      0.0000
     4 C13      3.2843   0.2342  -0.6074   C.2       1 1      0.0000
     5 C14      3.9634  -1.1065  -0.5010   C.3       1 1      0.0000
     6 H14B     5.0271  -0.9502  -0.7375   H         1 1      0.0000
     7 H14A     3.5692  -1.7318  -1.3161   H         1 1      0.0000
     8 N        3.9904   1.3255  -0.5420   N.pl3     1 1      0.0000
     9 HN       5.0011   1.2230  -0.4118   H         1 1      0.0000
    10 C        3.4840   2.7344  -0.5879   C.3       1 1      0.0000
    11 HC       4.3253   3.3939  -0.3709   H         1 1      0.0000
    12 HB       3.0961   2.9567  -1.5868   H         1 1      0.0000
    13 HA       2.7089   2.8442   0.1716   H         1 1      0.0000
    14 H12B     1.5354  -0.1847  -1.7543   H         1 1      0.0000
    15 O1       1.6441   0.0376   1.5778   O.3       1 1      0.0000
    16 H11      1.3546  -1.5980   0.2634   H         1 1      0.0000
    17 OH1      1.2322  -0.3744   2.3831   H         1 1      0.0000
    18 C10     -0.4270  -0.3914   0.2407   C.ar      1 1      0.0000
    19 C9      -1.2405  -1.5340   0.2288   C.ar      1 1      0.0000
    20 C5      -1.0062   0.8842   0.1415   C.ar      1 1      0.0000
    21 C8      -2.6249  -1.4092   0.0995   C.ar      1 1      0.0000
    22 H9      -0.8018  -2.5231   0.3251   H         1 1      0.0000
    23 C6      -2.3879   1.0200   0.0222   C.ar      1 1      0.0000
    24 H5      -0.3820   1.7710   0.1781   H         1 1      0.0000
    25 C7      -3.1741  -0.1327  -0.0040   C.ar      1 1      0.0000
    26 H8      -3.2720  -2.2769   0.0874   H         1 1      0.0000
    27 H6      -2.8576   1.9925  -0.0504   H         1 1      0.0000
    28 NO      -4.6353   0.0058  -0.1396   N.pl3     1 1      0.0000
    29 ON2     -5.1193   1.1931  -0.2335   O.2       1 1      0.0000
    30 ON1     -5.3394  -1.0701  -0.1543   O.2       1 1      0.0000
    31 C15      3.8200  -1.8408   0.8441   C.3       1 1      0.0000
    32 H15A     2.9780  -2.5434   0.8394   H         1 1      0.0000
    33 H15C     4.7240  -2.4282   1.0305   H         1 1      0.0000
    34 H15B     3.7197  -1.1436   1.6852   H         1 1      0.0000
@<TRIPOS>BOND
     1     1     2    1
     2     1    15    1
     3     1    16    1
     4     1    18    1
     5     2     3    1
     6     2     4    1
     7     2    14    1
     8     4     5    1
     9     4     8    2
    10     5     6    1
    11     5     7    1
    12     5    31    1
    13     8     9    1
    14     8    10    1
    15    10    11    1
    16    10    12    1
    17    10    13    1
    18    15    17    1
    19    18    19   ar
    20    18    20   ar
    21    19    21   ar
    22    19    22    1
    23    20    23   ar
    24    20    24    1
    25    21    25   ar
    26    21    26    1
    27    23    25   ar
    28    23    27    1
    29    25    28    1
    30    28    29   un
    31    28    30   un
    32    31    32    1
    33    31    33    1
    34    31    34    1
@<TRIPOS>SUBSTRUCTURE
     1 1           1 GROUP             0 ****  ****    0  
@<TRIPOS>MOLECULE
Molecule Name_00033
    34    34     1     0     0
SMALL
NO_CHARGES
****
Generated from the CSD

@<TRIPOS>ATOM
     1 C11      0.9532  -0.1734   0.6609   C.3       1 1      0.0000
     2 C12      1.7266   0.1530  -0.6546   C.3       1 1      0.0000
     3 H12A     1.5117   1.1873  -0.9320   H         1 1      0.0000
     4 C13      3.2011  -0.0817  -0.4761   C.2       1 1      0.0000
     5 C14      3.7275  -1.4864  -0.6156   C.3       1 1      0.0000
     6 H14B     3.4208  -1.8499  -1.6083   H         1 1      0.0000
     7 H14A     3.1794  -2.1081   0.1081   H         1 1      0.0000
     8 N        4.0202   0.8941  -0.2097   N.pl3     1 1      0.0000
     9 HN       5.0104   0.6577  -0.0978   H         1 1      0.0000
    10 C        3.6714   2.3352   0.0022   C.3       1 1      0.0000
    11 HC       4.5563   2.9267  -0.2369   H         1 1      0.0000
    12 HB       2.8523   2.6206  -0.6652   H         1 1      0.0000
    13 HA       3.3952   2.4700   1.0487   H         1 1      0.0000
    14 H12B     1.3487  -0.5037  -1.4455   H         1 1      0.0000
    15 O1       1.4217   0.8736   1.5987   O.3       1 1      0.0000
    16 H11      1.2549  -1.1606   1.0325   H         1 1      0.0000
    17 OH1      0.9639   0.7969   2.4777   H         1 1      0.0000
    18 C10     -0.5446  -0.1442   0.4328   C.ar      1 1      0.0000
    19 C9      -1.3327  -1.2332   0.8333   C.ar      1 1      0.0000
    20 C5      -1.1407   0.9595  -0.1987   C.ar      1 1      0.0000
    21 C8      -2.7071  -1.2329   0.5894   C.ar      1 1      0.0000
    22 H9      -0.8820  -2.0819   1.3401   H         1 1      0.0000
    23 C6      -2.5135   0.9741  -0.4378   C.ar      1 1      0.0000
    24 H5      -0.5381   1.8153  -0.4850   H         1 1      0.0000
    25 C7      -3.2731  -0.1286  -0.0448   C.ar      1 1      0.0000
    26 H8      -3.3347  -2.0625   0.8891   H         1 1      0.0000
    27 H6      -2.9962   1.8155  -0.9179   H         1 1      0.0000
    28 NO      -4.7242  -0.1218  -0.3041   N.pl3     1 1      0.0000
    29 ON2     -5.2056  -1.0558  -1.0447   O.2       1 1      0.0000
    30 ON1     -5.4220   0.8197   0.2251   O.2       1 1      0.0000
    31 C15      5.2440  -1.6701  -0.4272   C.3       1 1      0.0000
    32 H15A     5.5724  -1.3650   0.5737   H         1 1      0.0000
    33 H15C     5.4934  -2.7300  -0.5350   H         1 1      0.0000
    34 H15B     5.8218  -1.1327  -1.1894   H         1 1      0.0000
@<TRIPOS>BOND
     1     1     2    1
     2     1    15    1
     3     1    16    1
     4     1    18    1
     5     2     3    1
     6     2     4    1
     7     2    14    1
     8     4     5    1
     9     4     8    2
    10     5     6    1
    11     5     7    1
    12     5    31    1
    13     8     9    1
    14     8    10    1
    15    10    11    1
    16    10    12    1
    17    10    13    1
    18    15    17    1
    19    18    19   ar
    20    18    20   ar
    21    19    21   ar
    22    19    22    1
    23    20    23   ar
    24    20    24    1
    25    21    25   ar
    26    21    26    1
    27    23    25   ar
    28    23    27    1
    29    25    28    1
    30    28    29   un
    31    28    30   un
    32    31    32    1
    33    31    33    1
    34    31    34    1
@<TRIPOS>SUBSTRUCTURE
     1 1           1 GROUP             0 ****  ****    0  
@<TRIPOS>MOLECULE
Molecule Name_00034
    34    34     1     0     0
SMALL
NO_CHARGES
****
Generated from the CSD

@<TRIPOS>ATOM
     1 C11      0.9597  -0.3565  -0.6536   C.3       1 1      0.0000
     2 C12      1.7484  -0.0661   0.6612   C.3       1 1      0.0000
     3 H12A     1.5502  -0.8758   1.3670   H         1 1      0.0000
     4 C13      3.2181   0.0795   0.3780   C.2       1 1      0.0000
     5 C14      4.0632  -1.1657   0.3071   C.3       1 1      0.0000
     6 H14B     3.6243  -1.8112  -0.4691   H         1 1      0.0000
     7 H14A     3.9198  -1.7057   1.2550   H         1 1      0.0000
     8 N        3.7652   1.2457   0.1927   N.pl3     1 1      0.0000
     9 HN       4.7724   1.2671   0.0082   H         1 1      0.0000
    10 C        3.0927   2.5821   0.2660   C.3       1 1      0.0000
    11 HC       3.8686   3.3455   0.1952   H         1 1      0.0000
    12 HB       2.3960   2.6931  -0.5707   H         1 1      0.0000
    13 HA       2.5759   2.6528   1.2240   H         1 1      0.0000
    14 H12B     1.3681   0.8676   1.0893   H         1 1      0.0000
    15 O1       1.3907  -1.7279  -1.0120   O.3       1 1      0.0000
    16 H11      1.2751   0.3439  -1.4368   H         1 1      0.0000
    17 OH1      0.9198  -2.0492  -1.8263   H         1 1      0.0000
    18 C10     -0.5343  -0.2395  -0.4286   C.ar      1 1      0.0000
    19 C9      -1.3067   0.5664  -1.2779   C.ar      1 1      0.0000
    20 C5      -1.1420  -0.9173   0.6408   C.ar      1 1      0.0000
    21 C8      -2.6765   0.7131  -1.0529   C.ar      1 1      0.0000
    22 H9      -0.8475   1.0781  -2.1191   H         1 1      0.0000
    23 C6      -2.5106  -0.7855   0.8680   C.ar      1 1      0.0000
    24 H5      -0.5522  -1.5632   1.2830   H         1 1      0.0000
    25 C7      -3.2540   0.0353   0.0190   C.ar      1 1      0.0000
    26 H8      -3.2920   1.3303  -1.6950   H         1 1      0.0000
    27 H6      -3.0021  -1.3019   1.6823   H         1 1      0.0000
    28 NO      -4.7004   0.1852   0.2612   N.pl3     1 1      0.0000
    29 ON2     -5.1500   1.3665   0.4960   O.2       1 1      0.0000
    30 ON1     -5.4262  -0.8756   0.2246   O.2       1 1      0.0000
    31 C15      5.5648  -0.9585   0.0397   C.3       1 1      0.0000
    32 H15A     6.0423  -0.3617   0.8261   H         1 1      0.0000
    33 H15C     6.0652  -1.9315   0.0300   H         1 1      0.0000
    34 H15B     5.7493  -0.5008  -0.9401   H         1 1      0.0000
@<TRIPOS>BOND
     1     1     2    1
     2     1    15    1
     3     1    16    1
     4     1    18    1
     5     2     3    1
     6     2     4    1
     7     2    14    1
     8     4     5    1
     9     4     8    2
    10     5     6    1
    11     5     7    1
    12     5    31    1
    13     8     9    1
    14     8    10    1
    15    10    11    1
    16    10    12    1
    17    10    13    1
    18    15    17    1
    19    18    19   ar
    20    18    20   ar
    21    19    21   ar
    22    19    22    1
    23    20    23   ar
    24    20    24    1
    25    21    25   ar
    26    21    26    1
    27    23    25   ar
    28    23    27    1
    29    25    28    1
    30    28    29   un
    31    28    30   un
    32    31    32    1
    33    31    33    1
    34    31    34    1
@<TRIPOS>SUBSTRUCTURE
     1 1           1 GROUP             0 ****  ****    0  
@<TRIPOS>MOLECULE
Molecule Name_00035
    34    34     1     0     0
SMALL
NO_CHARGES
****
Generated from the CSD

@<TRIPOS>ATOM
     1 C11      0.9874   0.5869  -0.5793   C.3       1 1      0.0000
     2 C12      1.8354  -0.2038   0.4650   C.3       1 1      0.0000
     3 H12A     1.5047  -1.2448   0.4591   H         1 1      0.0000
     4 C13      3.3027  -0.0831   0.1587   C.2       1 1      0.0000
     5 C14      4.0438  -1.3104  -0.3039   C.3       1 1      0.0000
     6 H14B     4.9936  -0.9688  -0.7432   H         1 1      0.0000
     7 H14A     3.4691  -1.7367  -1.1398   H         1 1      0.0000
     8 N        3.9348   1.0479   0.2817   N.pl3     1 1      0.0000
     9 HN       4.9345   1.0530   0.0590   H         1 1      0.0000
    10 C        3.3730   2.3502   0.7634   C.3       1 1      0.0000
    11 HC       4.2132   3.0107   0.9818   H         1 1      0.0000
    12 HB       2.7521   2.7982  -0.0185   H         1 1      0.0000
    13 HA       2.7942   2.1593   1.6681   H         1 1      0.0000
    14 H12B     1.6368   0.2173   1.4564   H         1 1      0.0000
    15 O1       1.4866   0.0771  -1.8778   O.3       1 1      0.0000
    16 H11      1.2052   1.6590  -0.4976   H         1 1      0.0000
    17 OH1      0.9883   0.4826  -2.6364   H         1 1      0.0000
    18 C10     -0.4941   0.3447  -0.3722   C.ar      1 1      0.0000
    19 C9      -1.3707   1.4343  -0.2638   C.ar      1 1      0.0000
    20 C5      -0.9866  -0.9662  -0.2659   C.ar      1 1      0.0000
    21 C8      -2.7305   1.2214  -0.0313   C.ar      1 1      0.0000
    22 H9      -1.0006   2.4507  -0.3648   H         1 1      0.0000
    23 C6      -2.3440  -1.1898  -0.0438   C.ar      1 1      0.0000
    24 H5      -0.3156  -1.8117  -0.3767   H         1 1      0.0000
    25 C7      -3.1929  -0.0888   0.0770   C.ar      1 1      0.0000
    26 H8      -3.4252   2.0470   0.0564   H         1 1      0.0000
    27 H6      -2.7477  -2.1909   0.0365   H         1 1      0.0000
    28 NO      -4.6280  -0.3203   0.3214   N.pl3     1 1      0.0000
    29 ON2     -5.0314  -1.5371   0.4177   O.2       1 1      0.0000
    30 ON1     -5.3914   0.7095   0.4222   O.2       1 1      0.0000
    31 C15      4.3083  -2.3910   0.7599   C.3       1 1      0.0000
    32 H15A     3.3767  -2.7895   1.1793   H         1 1      0.0000
    33 H15C     4.8335  -3.2310   0.2955   H         1 1      0.0000
    34 H15B     4.9543  -2.0246   1.5673   H         1 1      0.0000
@<TRIPOS>BOND
     1     1     2    1
     2     1    15    1
     3     1    16    1
     4     1    18    1
     5     2     3    1
     6     2     4    1
     7     2    14    1
     8     4     5    1
     9     4     8    2
    10     5     6    1
    11     5     7    1
    12     5    31    1
    13     8     9    1
    14     8    10    1
    15    10    11    1
    16    10    12    1
    17    10    13    1
    18    15    17    1
    19    18    19   ar
    20    18    20   ar
    21    19    21   ar
    22    19    22    1
    23    20    23   ar
    24    20    24    1
    25    21    25   ar
    26    21    26    1
    27    23    25   ar
    28    23    27    1
    29    25    28    1
    30    28    29   un
    31    28    30   un
    32    31    32    1
    33    31    33    1
    34    31    34    1
@<TRIPOS>SUBSTRUCTURE
     1 1           1 GROUP             0 ****  ****    0  
@<TRIPOS>MOLECULE
Molecule Name_00036
    34    34     1     0     0
SMALL
NO_CHARGES
****
Generated from the CSD

@<TRIPOS>ATOM
     1 C11      1.2003   0.1236   1.7735   C.3       1 1      0.0000
     2 C12      2.2797   0.8065   0.8770   C.3       1 1      0.0000
     3 H12A     3.1681   0.9872   1.4861   H         1 1      0.0000
     4 C13      2.5900  -0.0451  -0.3229   C.2       1 1      0.0000
     5 C14      2.9979  -1.4783  -0.1010   C.3       1 1      0.0000
     6 H14B     2.2000  -1.9544   0.4892   H         1 1      0.0000
     7 H14A     3.8808  -1.4630   0.5556   H         1 1      0.0000
     8 N        2.5107   0.4263  -1.5334   N.pl3     1 1      0.0000
     9 HN       2.7408  -0.2115  -2.3010   H         1 1      0.0000
    10 C        2.1636   1.8261  -1.9377   C.3       1 1      0.0000
    11 HC       2.3238   1.9074  -3.0137   H         1 1      0.0000
    12 HB       1.1122   2.0279  -1.7106   H         1 1      0.0000
    13 HA       2.8231   2.5104  -1.4024   H         1 1      0.0000
    14 H12B     1.8860   1.7725   0.5431   H         1 1      0.0000
    15 O1       1.1809   0.9725   2.9876   O.3       1 1      0.0000
    16 H11      1.5267  -0.8895   2.0391   H         1 1      0.0000
    17 OH1      0.4922   0.6588   3.6321   H         1 1      0.0000
    18 C10     -0.1376   0.0648   1.0643   C.ar      1 1      0.0000
    19 C9      -1.1863   0.8968   1.4830   C.ar      1 1      0.0000
    20 C5      -0.3359  -0.8362   0.0055   C.ar      1 1      0.0000
    21 C8      -2.4346   0.8197   0.8628   C.ar      1 1      0.0000
    22 H9      -1.0350   1.6103   2.2881   H         1 1      0.0000
    23 C6      -1.5752  -0.9139  -0.6270   C.ar      1 1      0.0000
    24 H5       0.4813  -1.4617  -0.3389   H         1 1      0.0000
    25 C7      -2.6073  -0.0874  -0.1809   C.ar      1 1      0.0000
    26 H8      -3.2583   1.4515   1.1696   H         1 1      0.0000
    27 H6      -1.7504  -1.5966  -1.4484   H         1 1      0.0000
    28 NO      -3.9227  -0.1728  -0.8407   N.pl3     1 1      0.0000
    29 ON2     -4.0585  -1.0167  -1.8009   O.2       1 1      0.0000
    30 ON1     -4.8561   0.6036  -0.4170   O.2       1 1      0.0000
    31 C15      3.2933  -2.3084  -1.3631   C.3       1 1      0.0000
    32 H15A     4.1213  -1.8871  -1.9458   H         1 1      0.0000
    33 H15C     3.5937  -3.3178  -1.0666   H         1 1      0.0000
    34 H15B     2.4070  -2.4190  -2.0000   H         1 1      0.0000
@<TRIPOS>BOND
     1     1     2    1
     2     1    15    1
     3     1    16    1
     4     1    18    1
     5     2     3    1
     6     2     4    1
     7     2    14    1
     8     4     5    1
     9     4     8    2
    10     5     6    1
    11     5     7    1
    12     5    31    1
    13     8     9    1
    14     8    10    1
    15    10    11    1
    16    10    12    1
    17    10    13    1
    18    15    17    1
    19    18    19   ar
    20    18    20   ar
    21    19    21   ar
    22    19    22    1
    23    20    23   ar
    24    20    24    1
    25    21    25   ar
    26    21    26    1
    27    23    25   ar
    28    23    27    1
    29    25    28    1
    30    28    29   un
    31    28    30   un
    32    31    32    1
    33    31    33    1
    34    31    34    1
@<TRIPOS>SUBSTRUCTURE
     1 1           1 GROUP             0 ****  ****    0  
@<TRIPOS>MOLECULE
Molecule Name_00037
    34    34     1     0     0
SMALL
NO_CHARGES
****
Generated from the CSD

@<TRIPOS>ATOM
     1 C11      0.9494  -0.1599   0.6829   C.3       1 1      0.0000
     2 C12      1.7416  -0.4043  -0.6391   C.3       1 1      0.0000
     3 H12A     1.3985   0.3172  -1.3839   H         1 1      0.0000
     4 C13      3.2221  -0.2965  -0.3990   C.2       1 1      0.0000
     5 C14      3.9490  -1.4929   0.1578   C.3       1 1      0.0000
     6 H14B     3.7532  -2.3360  -0.5223   H         1 1      0.0000
     7 H14A     3.4546  -1.7572   1.1046   H         1 1      0.0000
     8 N        3.8786   0.7960  -0.6625   N.pl3     1 1      0.0000
     9 HN       4.8844   0.7967  -0.4694   H         1 1      0.0000
    10 C        3.3180   2.0858  -1.1778   C.3       1 1      0.0000
    11 HC       4.1485   2.6696  -1.5772   H         1 1      0.0000
    12 HB       2.5979   1.8844  -1.9769   H         1 1      0.0000
    13 HA       2.8491   2.6119  -0.3452   H         1 1      0.0000
    14 H12B     1.5056  -1.4118  -0.9982   H         1 1      0.0000
    15 O1       1.4979   1.1256   1.1746   O.3       1 1      0.0000
    16 H11      1.1768  -0.9555   1.4032   H         1 1      0.0000
    17 OH1      1.2371   1.2872   2.1200   H         1 1      0.0000
    18 C10     -0.5425  -0.1119   0.4219   C.ar      1 1      0.0000
    19 C9      -1.3435   0.8049   1.1185   C.ar      1 1      0.0000
    20 C5      -1.1268  -0.9980  -0.4977   C.ar      1 1      0.0000
    21 C8      -2.7244   0.8277   0.9152   C.ar      1 1      0.0000
    22 H9      -0.8966   1.5069   1.8168   H         1 1      0.0000
    23 C6      -2.5030  -0.9766  -0.7155   C.ar      1 1      0.0000
    24 H5      -0.5065  -1.6897  -1.0584   H         1 1      0.0000
    25 C7      -3.2802  -0.0665   0.0022   C.ar      1 1      0.0000
    26 H8      -3.3620   1.5260   1.4420   H         1 1      0.0000
    27 H6      -2.9753  -1.6460  -1.4228   H         1 1      0.0000
    28 NO      -4.7376  -0.0467  -0.2179   N.pl3     1 1      0.0000
    29 ON2     -5.2278  -0.8805  -1.0647   O.2       1 1      0.0000
    30 ON1     -5.4319   0.8053   0.4496   O.2       1 1      0.0000
    31 C15      5.4632  -1.3302   0.3807   C.3       1 1      0.0000
    32 H15A     5.6882  -0.5301   1.0962   H         1 1      0.0000
    33 H15C     5.8657  -2.2564   0.8017   H         1 1      0.0000
    34 H15B     6.0011  -1.1527  -0.5589   H         1 1      0.0000
@<TRIPOS>BOND
     1     1     2    1
     2     1    15    1
     3     1    16    1
     4     1    18    1
     5     2     3    1
     6     2     4    1
     7     2    14    1
     8     4     5    1
     9     4     8    2
    10     5     6    1
    11     5     7    1
    12     5    31    1
    13     8     9    1
    14     8    10    1
    15    10    11    1
    16    10    12    1
    17    10    13    1
    18    15    17    1
    19    18    19   ar
    20    18    20   ar
    21    19    21   ar
    22    19    22    1
    23    20    23   ar
    24    20    24    1
    25    21    25   ar
    26    21    26    1
    27    23    25   ar
    28    23    27    1
    29    25    28    1
    30    28    29   un
    31    28    30   un
    32    31    32    1
    33    31    33    1
    34    31    34    1
@<TRIPOS>SUBSTRUCTURE
     1 1           1 GROUP             0 ****  ****    0  
@<TRIPOS>MOLECULE
Molecule Name_00038
    34    34     1     0     0
SMALL
NO_CHARGES
****
Generated from the CSD

@<TRIPOS>ATOM
     1 C11      0.9426  -0.3833  -0.5591   C.3       1 1      0.0000
     2 C12      1.7479   0.4903   0.4526   C.3       1 1      0.0000
     3 H12A     1.4228   0.2336   1.4633   H         1 1      0.0000
     4 C13      3.2266   0.2841   0.2732   C.2       1 1      0.0000
     5 C14      3.8975  -0.8201   1.0480   C.3       1 1      0.0000
     6 H14B     3.3805  -1.7571   0.7900   H         1 1      0.0000
     7 H14A     3.6776  -0.6456   2.1119   H         1 1      0.0000
     8 N        3.9272   1.0303  -0.5305   N.pl3     1 1      0.0000
     9 HN       4.9300   0.8335  -0.5984   H         1 1      0.0000
    10 C        3.4395   2.1903  -1.3430   C.3       1 1      0.0000
    11 HC       4.3116   2.6680  -1.7916   H         1 1      0.0000
    12 HB       2.7727   1.8345  -2.1345   H         1 1      0.0000
    13 HA       2.9271   2.8842  -0.6754   H         1 1      0.0000
    14 H12B     1.5039   1.5418   0.2667   H         1 1      0.0000
    15 O1       1.4593  -1.7500  -0.3136   O.3       1 1      0.0000
    16 H11      1.1836  -0.0785  -1.5850   H         1 1      0.0000
    17 OH1      1.0192  -2.4112  -0.9113   H         1 1      0.0000
    18 C10     -0.5484  -0.2565  -0.3205   C.ar      1 1      0.0000
    19 C9      -1.3739  -1.3832  -0.4498   C.ar      1 1      0.0000
    20 C5      -1.1072   0.9897   0.0066   C.ar      1 1      0.0000
    21 C8      -2.7537  -1.2670  -0.2728   C.ar      1 1      0.0000
    22 H9      -0.9470  -2.3545  -0.6831   H         1 1      0.0000
    23 C6      -2.4823   1.1143   0.1952   C.ar      1 1      0.0000
    24 H5      -0.4683   1.8574   0.1343   H         1 1      0.0000
    25 C7      -3.2839  -0.0180   0.0446   C.ar      1 1      0.0000
    26 H8      -3.4099  -2.1226  -0.3682   H         1 1      0.0000
    27 H6      -2.9352   2.0629   0.4530   H         1 1      0.0000
    28 NO      -4.7401   0.1110   0.2339   N.pl3     1 1      0.0000
    29 ON2     -5.2064   1.2728   0.5261   O.2       1 1      0.0000
    30 ON1     -5.4573  -0.9474   0.0968   O.2       1 1      0.0000
    31 C15      5.4149  -0.9759   0.8415   C.3       1 1      0.0000
    32 H15A     5.9635  -0.0747   1.1405   H         1 1      0.0000
    33 H15C     5.7804  -1.7943   1.4689   H         1 1      0.0000
    34 H15B     5.6647  -1.2386  -0.1940   H         1 1      0.0000
@<TRIPOS>BOND
     1     1     2    1
     2     1    15    1
     3     1    16    1
     4     1    18    1
     5     2     3    1
     6     2     4    1
     7     2    14    1
     8     4     5    1
     9     4     8    2
    10     5     6    1
    11     5     7    1
    12     5    31    1
    13     8     9    1
    14     8    10    1
    15    10    11    1
    16    10    12    1
    17    10    13    1
    18    15    17    1
    19    18    19   ar
    20    18    20   ar
    21    19    21   ar
    22    19    22    1
    23    20    23   ar
    24    20    24    1
    25    21    25   ar
    26    21    26    1
    27    23    25   ar
    28    23    27    1
    29    25    28    1
    30    28    29   un
    31    28    30   un
    32    31    32    1
    33    31    33    1
    34    31    34    1
@<TRIPOS>SUBSTRUCTURE
     1 1           1 GROUP             0 ****  ****    0  
@<TRIPOS>MOLECULE
Molecule Name_00039
    34    34     1     0     0
SMALL
NO_CHARGES
****
Generated from the CSD

@<TRIPOS>ATOM
     1 C11      1.0347  -0.2048  -0.5644   C.3       1 1      0.0000
     2 C12      1.7589   0.5072   0.6203   C.3       1 1      0.0000
     3 H12A     1.4042   0.0667   1.5547   H         1 1      0.0000
     4 C13      3.2513   0.3886   0.4791   C.2       1 1      0.0000
     5 C14      3.9273  -0.8492   1.0088   C.3       1 1      0.0000
     6 H14B     3.2272  -1.3243   1.7129   H         1 1      0.0000
     7 H14A     4.7781  -0.5137   1.6206   H         1 1      0.0000
     8 N        3.9596   1.3220  -0.0874   N.pl3     1 1      0.0000
     9 HN       4.9714   1.1734  -0.1444   H         1 1      0.0000
    10 C        3.4661   2.6277  -0.6307   C.3       1 1      0.0000
    11 HC       4.3392   3.2208  -0.9060   H         1 1      0.0000
    12 HB       2.8516   2.4514  -1.5189   H         1 1      0.0000
    13 HA       2.8963   3.1303   0.1519   H         1 1      0.0000
    14 H12B     1.4771   1.5656   0.6072   H         1 1      0.0000
    15 O1       1.5878  -1.5787  -0.5239   O.3       1 1      0.0000
    16 H11      1.3131   0.2752  -1.5108   H         1 1      0.0000
    17 OH1      1.1684  -2.1535  -1.2180   H         1 1      0.0000
    18 C10     -0.4697  -0.1610  -0.3874   C.ar      1 1      0.0000
    19 C9      -1.1485   1.0623  -0.4871   C.ar      1 1      0.0000
    20 C5      -1.1810  -1.3377  -0.1015   C.ar      1 1      0.0000
    21 C8      -2.5285   1.1184  -0.2841   C.ar      1 1      0.0000
    22 H9      -0.6083   1.9736  -0.7275   H         1 1      0.0000
    23 C6      -2.5602  -1.2941   0.0929   C.ar      1 1      0.0000
    24 H5      -0.6628  -2.2898  -0.0509   H         1 1      0.0000
    25 C7      -3.2100  -0.0623   0.0049   C.ar      1 1      0.0000
    26 H8      -3.0730   2.0513  -0.3555   H         1 1      0.0000
    27 H6      -3.1306  -2.1882   0.3090   H         1 1      0.0000
    28 NO      -4.6675  -0.0099   0.2191   N.pl3     1 1      0.0000
    29 ON2     -5.2748  -1.1114   0.4844   O.2       1 1      0.0000
    30 ON1     -5.2450   1.1352   0.1261   O.2       1 1      0.0000
    31 C15      4.4019  -1.8710  -0.0399   C.3       1 1      0.0000
    32 H15A     4.4843  -1.4249  -1.0384   H         1 1      0.0000
    33 H15C     5.3995  -2.2282   0.2327   H         1 1      0.0000
    34 H15B     3.7520  -2.7540  -0.0782   H         1 1      0.0000
@<TRIPOS>BOND
     1     1     2    1
     2     1    15    1
     3     1    16    1
     4     1    18    1
     5     2     3    1
     6     2     4    1
     7     2    14    1
     8     4     5    1
     9     4     8    2
    10     5     6    1
    11     5     7    1
    12     5    31    1
    13     8     9    1
    14     8    10    1
    15    10    11    1
    16    10    12    1
    17    10    13    1
    18    15    17    1
    19    18    19   ar
    20    18    20   ar
    21    19    21   ar
    22    19    22    1
    23    20    23   ar
    24    20    24    1
    25    21    25   ar
    26    21    26    1
    27    23    25   ar
    28    23    27    1
    29    25    28    1
    30    28    29   un
    31    28    30   un
    32    31    32    1
    33    31    33    1
    34    31    34    1
@<TRIPOS>SUBSTRUCTURE
     1 1           1 GROUP             0 ****  ****    0  
@<TRIPOS>MOLECULE
Molecule Name_00040
    34    34     1     0     0
SMALL
NO_CHARGES
****
Generated from the CSD

@<TRIPOS>ATOM
     1 C11      1.3292   1.1703   1.2082   C.3       1 1      0.0000
     2 C12      2.3596   1.1530   0.0363   C.3       1 1      0.0000
     3 H12A     3.2914   1.5987   0.3913   H         1 1      0.0000
     4 C13      2.5681  -0.2485  -0.4670   C.2       1 1      0.0000
     5 C14      2.0983  -0.5904  -1.8571   C.3       1 1      0.0000
     6 H14B     2.5935  -1.5307  -2.1440   H         1 1      0.0000
     7 H14A     2.5077   0.1761  -2.5321   H         1 1      0.0000
     8 N        3.1419  -1.1585   0.2655   N.pl3     1 1      0.0000
     9 HN       3.2462  -2.0920  -0.1428   H         1 1      0.0000
    10 C        3.6315  -1.0100   1.6732   C.3       1 1      0.0000
    11 HC       4.3354  -1.8212   1.8643   H         1 1      0.0000
    12 HB       4.1436  -0.0498   1.7885   H         1 1      0.0000
    13 HA       2.7740  -1.0848   2.3432   H         1 1      0.0000
    14 H12B     1.9654   1.7741  -0.7752   H         1 1      0.0000
    15 O1       1.3164   2.5911   1.6279   O.3       1 1      0.0000
    16 H11      1.6963   0.5472   2.0331   H         1 1      0.0000
    17 OH1      0.6570   2.7428   2.3561   H         1 1      0.0000
    18 C10     -0.0256   0.6710   0.7484   C.ar      1 1      0.0000
    19 C9      -0.3979  -0.6594   0.9910   C.ar      1 1      0.0000
    20 C5      -0.8981   1.5302   0.0608   C.ar      1 1      0.0000
    21 C8      -1.6266  -1.1394   0.5344   C.ar      1 1      0.0000
    22 H9       0.2630  -1.3247   1.5395   H         1 1      0.0000
    23 C6      -2.1313   1.0637  -0.3905   C.ar      1 1      0.0000
    24 H5      -0.6248   2.5672  -0.1044   H         1 1      0.0000
    25 C7      -2.4713  -0.2684  -0.1512   C.ar      1 1      0.0000
    26 H8      -1.9345  -2.1623   0.7096   H         1 1      0.0000
    27 H6      -2.8225   1.7082  -0.9179   H         1 1      0.0000
    28 NO      -3.7707  -0.7689  -0.6349   N.pl3     1 1      0.0000
    29 ON2     -4.5331   0.0525  -1.2647   O.2       1 1      0.0000
    30 ON1     -4.0648  -1.9978  -0.3965   O.2       1 1      0.0000
    31 C15      0.5765  -0.7091  -2.0546   C.3       1 1      0.0000
    32 H15A     0.0706   0.2556  -1.9277   H         1 1      0.0000
    33 H15C     0.3721  -1.0441  -3.0759   H         1 1      0.0000
    34 H15B     0.1312  -1.4550  -1.3846   H         1 1      0.0000
@<TRIPOS>BOND
     1     1     2    1
     2     1    15    1
     3     1    16    1
     4     1    18    1
     5     2     3    1
     6     2     4    1
     7     2    14    1
     8     4     5    1
     9     4     8    2
    10     5     6    1
    11     5     7    1
    12     5    31    1
    13     8     9    1
    14     8    10    1
    15    10    11    1
    16    10    12    1
    17    10    13    1
    18    15    17    1
    19    18    19   ar
    20    18    20   ar
    21    19    21   ar
    22    19    22    1
    23    20    23   ar
    24    20    24    1
    25    21    25   ar
    26    21    26    1
    27    23    25   ar
    28    23    27    1
    29    25    28    1
    30    28    29   un
    31    28    30   un
    32    31    32    1
    33    31    33    1
    34    31    34    1
@<TRIPOS>SUBSTRUCTURE
     1 1           1 GROUP             0 ****  ****    0  
@<TRIPOS>MOLECULE
Molecule Name_00041
    34    34     1     0     0
SMALL
NO_CHARGES
****
Generated from the CSD

@<TRIPOS>ATOM
     1 C11      0.9588  -0.0337   0.7401   C.3       1 1      0.0000
     2 C12      1.7359   0.4994  -0.5038   C.3       1 1      0.0000
     3 H12A     1.6742   1.5899  -0.5061   H         1 1      0.0000
     4 C13      3.1615   0.0215  -0.4845   C.2       1 1      0.0000
     5 C14      3.4625  -1.3631  -0.9962   C.3       1 1      0.0000
     6 H14B     3.0760  -1.4191  -2.0254   H         1 1      0.0000
     7 H14A     2.8461  -2.0626  -0.4117   H         1 1      0.0000
     8 N        4.1275   0.7734  -0.0423   N.pl3     1 1      0.0000
     9 HN       5.0726   0.3790  -0.0562   H         1 1      0.0000
    10 C        4.0096   2.1497   0.5367   C.3       1 1      0.0000
    11 HC       5.0198   2.5140   0.7282   H         1 1      0.0000
    12 HB       3.5140   2.8123  -0.1795   H         1 1      0.0000
    13 HA       3.4468   2.0817   1.4686   H         1 1      0.0000
    14 H12B     1.2399   0.1222  -1.4046   H         1 1      0.0000
    15 O1       1.3355   0.9196   1.8098   O.3       1 1      0.0000
    16 H11      1.3187  -1.0371   0.9992   H         1 1      0.0000
    17 OH1      0.8656   0.7073   2.6596   H         1 1      0.0000
    18 C10     -0.5323  -0.0738   0.4736   C.ar      1 1      0.0000
    19 C9      -1.2532  -1.2521   0.7176   C.ar      1 1      0.0000
    20 C5      -1.1884   1.0576  -0.0381   C.ar      1 1      0.0000
    21 C8      -2.6191  -1.3110   0.4356   C.ar      1 1      0.0000
    22 H9      -0.7569  -2.1251   1.1319   H         1 1      0.0000
    23 C6      -2.5536   1.0123  -0.3135   C.ar      1 1      0.0000
    24 H5      -0.6392   1.9790  -0.2021   H         1 1      0.0000
    25 C7      -3.2450  -0.1767  -0.0778   C.ar      1 1      0.0000
    26 H8      -3.1952  -2.2096   0.6154   H         1 1      0.0000
    27 H6      -3.0820   1.8729  -0.7033   H         1 1      0.0000
    28 NO      -4.6874  -0.2322  -0.3766   N.pl3     1 1      0.0000
    29 ON2     -5.1312   0.5063  -1.3307   O.2       1 1      0.0000
    30 ON1     -5.4164  -1.0154   0.3366   O.2       1 1      0.0000
    31 C15      4.9377  -1.8007  -0.9576   C.3       1 1      0.0000
    32 H15A     5.3367  -1.8060   0.0639   H         1 1      0.0000
    33 H15C     5.0186  -2.8239  -1.3364   H         1 1      0.0000
    34 H15B     5.5694  -1.1766  -1.6018   H         1 1      0.0000
@<TRIPOS>BOND
     1     1     2    1
     2     1    15    1
     3     1    16    1
     4     1    18    1
     5     2     3    1
     6     2     4    1
     7     2    14    1
     8     4     5    1
     9     4     8    2
    10     5     6    1
    11     5     7    1
    12     5    31    1
    13     8     9    1
    14     8    10    1
    15    10    11    1
    16    10    12    1
    17    10    13    1
    18    15    17    1
    19    18    19   ar
    20    18    20   ar
    21    19    21   ar
    22    19    22    1
    23    20    23   ar
    24    20    24    1
    25    21    25   ar
    26    21    26    1
    27    23    25   ar
    28    23    27    1
    29    25    28    1
    30    28    29   un
    31    28    30   un
    32    31    32    1
    33    31    33    1
    34    31    34    1
@<TRIPOS>SUBSTRUCTURE
     1 1           1 GROUP             0 ****  ****    0  
@<TRIPOS>MOLECULE
Molecule Name_00042
    34    34     1     0     0
SMALL
NO_CHARGES
****
Generated from the CSD

@<TRIPOS>ATOM
     1 C11      1.2524   0.5836   1.5686   C.3       1 1      0.0000
     2 C12      2.2178   1.2545   0.5423   C.3       1 1      0.0000
     3 H12A     3.1174   1.5725   1.0739   H         1 1      0.0000
     4 C13      2.5392   0.3085  -0.5815   C.2       1 1      0.0000
     5 C14      1.5818   0.2184  -1.7413   C.3       1 1      0.0000
     6 H14B     2.1792   0.3052  -2.6617   H         1 1      0.0000
     7 H14A     0.9545   1.1219  -1.7109   H         1 1      0.0000
     8 N        3.6164  -0.4219  -0.5719   N.pl3     1 1      0.0000
     9 HN       3.7669  -1.0459  -1.3700   H         1 1      0.0000
    10 C        4.6519  -0.4920   0.5081   C.3       1 1      0.0000
    11 HC       5.3396  -1.2995   0.2530   H         1 1      0.0000
    12 HB       5.2023   0.4527   0.5560   H         1 1      0.0000
    13 HA       4.1481  -0.7054   1.4517   H         1 1      0.0000
    14 H12B     1.7224   2.1432   0.1368   H         1 1      0.0000
    15 O1       1.1480   1.5942   2.6470   O.3       1 1      0.0000
    16 H11      1.7111  -0.3306   1.9653   H         1 1      0.0000
    17 OH1      0.5178   1.2966   3.3558   H         1 1      0.0000
    18 C10     -0.0804   0.2549   0.9268   C.ar      1 1      0.0000
    19 C9      -0.7734   1.2433   0.2125   C.ar      1 1      0.0000
    20 C5      -0.6326  -1.0289   1.0653   C.ar      1 1      0.0000
    21 C8      -2.0211   0.9613  -0.3465   C.ar      1 1      0.0000
    22 H9      -0.3439   2.2328   0.0841   H         1 1      0.0000
    23 C6      -1.8730  -1.3236   0.5025   C.ar      1 1      0.0000
    24 H5      -0.0866  -1.8035   1.5937   H         1 1      0.0000
    25 C7      -2.5501  -0.3183  -0.1890   C.ar      1 1      0.0000
    26 H8      -2.5740   1.7086  -0.9012   H         1 1      0.0000
    27 H6      -2.3163  -2.3069   0.5915   H         1 1      0.0000
    28 NO      -3.8667  -0.6227  -0.7779   N.pl3     1 1      0.0000
    29 ON2     -4.3346  -1.8096  -0.6198   O.2       1 1      0.0000
    30 ON1     -4.4683   0.3175  -1.4164   O.2       1 1      0.0000
    31 C15      0.6948  -1.0381  -1.7996   C.3       1 1      0.0000
    32 H15A    -0.3480  -0.8156  -1.5431   H         1 1      0.0000
    33 H15C     0.6949  -1.4305  -2.8209   H         1 1      0.0000
    34 H15B     1.0745  -1.8406  -1.1551   H         1 1      0.0000
@<TRIPOS>BOND
     1     1     2    1
     2     1    15    1
     3     1    16    1
     4     1    18    1
     5     2     3    1
     6     2     4    1
     7     2    14    1
     8     4     5    1
     9     4     8    2
    10     5     6    1
    11     5     7    1
    12     5    31    1
    13     8     9    1
    14     8    10    1
    15    10    11    1
    16    10    12    1
    17    10    13    1
    18    15    17    1
    19    18    19   ar
    20    18    20   ar
    21    19    21   ar
    22    19    22    1
    23    20    23   ar
    24    20    24    1
    25    21    25   ar
    26    21    26    1
    27    23    25   ar
    28    23    27    1
    29    25    28    1
    30    28    29   un
    31    28    30   un
    32    31    32    1
    33    31    33    1
    34    31    34    1
@<TRIPOS>SUBSTRUCTURE
     1 1           1 GROUP             0 ****  ****    0  
@<TRIPOS>MOLECULE
Molecule Name_00043
    34    34     1     0     0
SMALL
NO_CHARGES
****
Generated from the CSD

@<TRIPOS>ATOM
     1 C11      0.9556   0.0220   0.6812   C.3       1 1      0.0000
     2 C12      1.7230  -0.0811  -0.6737   C.3       1 1      0.0000
     3 H12A     1.4989   0.8099  -1.2643   H         1 1      0.0000
     4 C13      3.1999  -0.2365  -0.4373   C.2       1 1      0.0000
     5 C14      3.7375  -1.6089  -0.1258   C.3       1 1      0.0000
     6 H14B     3.4314  -2.2713  -0.9500   H         1 1      0.0000
     7 H14A     3.1964  -1.9724   0.7606   H         1 1      0.0000
     8 N        4.0115   0.7791  -0.4988   N.pl3     1 1      0.0000
     9 HN       5.0040   0.5975  -0.3224   H         1 1      0.0000
    10 C        3.6514   2.2104  -0.7540   C.3       1 1      0.0000
    11 HC       4.5307   2.7015  -1.1730   H         1 1      0.0000
    12 HB       2.8283   2.2632  -1.4734   H         1 1      0.0000
    13 HA       3.3766   2.6688   0.1968   H         1 1      0.0000
    14 H12B     1.3486  -0.9578  -1.2132   H         1 1      0.0000
    15 O1       1.4177   1.3160   1.2353   O.3       1 1      0.0000
    16 H11      1.2664  -0.7938   1.3456   H         1 1      0.0000
    17 OH1      0.9628   1.5194   2.0954   H         1 1      0.0000
    18 C10     -0.5429  -0.0334   0.4630   C.ar      1 1      0.0000
    19 C9      -1.1402  -1.2235   0.0223   C.ar      1 1      0.0000
    20 C5      -1.3301   1.1095   0.6788   C.ar      1 1      0.0000
    21 C8      -2.5139  -1.2717  -0.2213   C.ar      1 1      0.0000
    22 H9      -0.5412  -2.1172  -0.1279   H         1 1      0.0000
    23 C6      -2.7038   1.0691   0.4482   C.ar      1 1      0.0000
    24 H5      -0.8753   2.0237   1.0460   H         1 1      0.0000
    25 C7      -3.2715  -0.1221  -0.0059   C.ar      1 1      0.0000
    26 H8      -2.9961  -2.1789  -0.5623   H         1 1      0.0000
    27 H6      -3.3317   1.9353   0.6124   H         1 1      0.0000
    28 NO      -4.7228  -0.1668  -0.2602   N.pl3     1 1      0.0000
    29 ON2     -5.1146  -0.4536  -1.4505   O.2       1 1      0.0000
    30 ON1     -5.5107   0.0854   0.7242   O.2       1 1      0.0000
    31 C15      5.2560  -1.7126   0.1036   C.3       1 1      0.0000
    32 H15A     5.5843  -1.1030   0.9541   H         1 1      0.0000
    33 H15C     5.5138  -2.7500   0.3369   H         1 1      0.0000
    34 H15B     5.8274  -1.4412  -0.7927   H         1 1      0.0000
@<TRIPOS>BOND
     1     1     2    1
     2     1    15    1
     3     1    16    1
     4     1    18    1
     5     2     3    1
     6     2     4    1
     7     2    14    1
     8     4     5    1
     9     4     8    2
    10     5     6    1
    11     5     7    1
    12     5    31    1
    13     8     9    1
    14     8    10    1
    15    10    11    1
    16    10    12    1
    17    10    13    1
    18    15    17    1
    19    18    19   ar
    20    18    20   ar
    21    19    21   ar
    22    19    22    1
    23    20    23   ar
    24    20    24    1
    25    21    25   ar
    26    21    26    1
    27    23    25   ar
    28    23    27    1
    29    25    28    1
    30    28    29   un
    31    28    30   un
    32    31    32    1
    33    31    33    1
    34    31    34    1
@<TRIPOS>SUBSTRUCTURE
     1 1           1 GROUP             0 ****  ****    0  
@<TRIPOS>MOLECULE
Molecule Name_00044
    34    34     1     0     0
SMALL
NO_CHARGES
****
Generated from the CSD

@<TRIPOS>ATOM
     1 C11      0.9602  -0.6186  -0.4239   C.3       1 1      0.0000
     2 C12      1.7469   0.2871   0.5740   C.3       1 1      0.0000
     3 H12A     1.5449  -0.0631   1.5887   H         1 1      0.0000
     4 C13      3.2176   0.2703   0.2607   C.2       1 1      0.0000
     5 C14      4.0594  -0.8458   0.8222   C.3       1 1      0.0000
     6 H14B     3.6203  -1.7915   0.4693   H         1 1      0.0000
     7 H14A     3.9125  -0.8417   1.9127   H         1 1      0.0000
     8 N        3.7683   1.1886  -0.4791   N.pl3     1 1      0.0000
     9 HN       4.7760   1.1139  -0.6464   H         1 1      0.0000
    10 C        3.0994   2.3847  -1.0833   C.3       1 1      0.0000
    11 HC       3.8776   3.0104  -1.5225   H         1 1      0.0000
    12 HB       2.4049   2.0652  -1.8664   H         1 1      0.0000
    13 HA       2.5807   2.9239  -0.2896   H         1 1      0.0000
    14 H12B     1.3683   1.3105   0.4788   H         1 1      0.0000
    15 O1       1.3882  -1.9869  -0.0502   O.3       1 1      0.0000
    16 H11      1.2793  -0.4018  -1.4510   H         1 1      0.0000
    17 OH1      0.9182  -2.6705  -0.5978   H         1 1      0.0000
    18 C10     -0.5339  -0.4031  -0.2920   C.ar      1 1      0.0000
    19 C9      -1.1007   0.8166  -0.6902   C.ar      1 1      0.0000
    20 C5      -1.3473  -1.4122   0.2486   C.ar      1 1      0.0000
    21 C8      -2.4698   1.0392  -0.5336   C.ar      1 1      0.0000
    22 H9      -0.4814   1.5946  -1.1276   H         1 1      0.0000
    23 C6      -2.7168  -1.2038   0.3999   C.ar      1 1      0.0000
    24 H5      -0.9163  -2.3669   0.5321   H         1 1      0.0000
    25 C7      -3.2538   0.0243   0.0117   C.ar      1 1      0.0000
    26 H8      -2.9287   1.9727  -0.8332   H         1 1      0.0000
    27 H6      -3.3646  -1.9683   0.8091   H         1 1      0.0000
    28 NO      -4.7005   0.2528   0.1786   N.pl3     1 1      0.0000
    29 ON2     -5.0710   1.2278   0.9302   O.2       1 1      0.0000
    30 ON1     -5.5061  -0.5383  -0.4367   O.2       1 1      0.0000
    31 C15      5.5621  -0.8014   0.4921   C.3       1 1      0.0000
    32 H15A     6.0396   0.1072   0.8782   H         1 1      0.0000
    33 H15C     6.0599  -1.6505   0.9699   H         1 1      0.0000
    34 H15B     5.7500  -0.8929  -0.5849   H         1 1      0.0000
@<TRIPOS>BOND
     1     1     2    1
     2     1    15    1
     3     1    16    1
     4     1    18    1
     5     2     3    1
     6     2     4    1
     7     2    14    1
     8     4     5    1
     9     4     8    2
    10     5     6    1
    11     5     7    1
    12     5    31    1
    13     8     9    1
    14     8    10    1
    15    10    11    1
    16    10    12    1
    17    10    13    1
    18    15    17    1
    19    18    19   ar
    20    18    20   ar
    21    19    21   ar
    22    19    22    1
    23    20    23   ar
    24    20    24    1
    25    21    25   ar
    26    21    26    1
    27    23    25   ar
    28    23    27    1
    29    25    28    1
    30    28    29   un
    31    28    30   un
    32    31    32    1
    33    31    33    1
    34    31    34    1
@<TRIPOS>SUBSTRUCTURE
     1 1           1 GROUP             0 ****  ****    0  
@<TRIPOS>MOLECULE
Molecule Name_00045
    34    34     1     0     0
SMALL
NO_CHARGES
****
Generated from the CSD

@<TRIPOS>ATOM
     1 C11      1.2618  -0.4287   1.5967   C.3       1 1      0.0000
     2 C12      2.2818   0.4957   0.8617   C.3       1 1      0.0000
     3 H12A     3.2423   0.4259   1.3772   H         1 1      0.0000
     4 C13      2.3977   0.1122  -0.5876   C.2       1 1      0.0000
     5 C14      2.6698  -1.3295  -0.9302   C.3       1 1      0.0000
     6 H14B     2.4356  -1.4582  -1.9981   H         1 1      0.0000
     7 H14A     1.9255  -1.9339  -0.3904   H         1 1      0.0000
     8 N        2.2661   0.9908  -1.5387   N.pl3     1 1      0.0000
     9 HN       2.3617   0.6567  -2.5022   H         1 1      0.0000
    10 C        2.0353   2.4627  -1.3846   C.3       1 1      0.0000
    11 HC       2.1112   2.9134  -2.3751   H         1 1      0.0000
    12 HB       1.0341   2.6408  -0.9800   H         1 1      0.0000
    13 HA       2.8062   2.8626  -0.7247   H         1 1      0.0000
    14 H12B     1.9231   1.5279   0.9354   H         1 1      0.0000
    15 O1       1.3326   0.0371   3.0014   O.3       1 1      0.0000
    16 H11      1.5982  -1.4713   1.5383   H         1 1      0.0000
    17 OH1      0.6877  -0.4565   3.5746   H         1 1      0.0000
    18 C10     -0.1222  -0.2991   0.9934   C.ar      1 1      0.0000
    19 C9      -0.8236  -1.4494   0.6030   C.ar      1 1      0.0000
    20 C5      -0.6933   0.9698   0.8037   C.ar      1 1      0.0000
    21 C8      -2.0815  -1.3370   0.0082   C.ar      1 1      0.0000
    22 H9      -0.3972  -2.4354   0.7645   H         1 1      0.0000
    23 C6      -1.9527   1.0924   0.2200   C.ar      1 1      0.0000
    24 H5      -0.1651   1.8600   1.1297   H         1 1      0.0000
    25 C7      -2.6230  -0.0661  -0.1750   C.ar      1 1      0.0000
    26 H8      -2.6405  -2.2108  -0.3014   H         1 1      0.0000
    27 H6      -2.4154   2.0590   0.0683   H         1 1      0.0000
    28 NO      -3.9514   0.0591  -0.8015   N.pl3     1 1      0.0000
    29 ON2     -4.4307   1.2414  -0.9602   O.2       1 1      0.0000
    30 ON1     -4.5526  -1.0226  -1.1506   O.2       1 1      0.0000
    31 C15      4.0879  -1.8475  -0.6306   C.3       1 1      0.0000
    32 H15A     4.3312  -1.7810   0.4366   H         1 1      0.0000
    33 H15C     4.1495  -2.9046  -0.9061   H         1 1      0.0000
    34 H15B     4.8507  -1.3244  -1.2206   H         1 1      0.0000
@<TRIPOS>BOND
     1     1     2    1
     2     1    15    1
     3     1    16    1
     4     1    18    1
     5     2     3    1
     6     2     4    1
     7     2    14    1
     8     4     5    1
     9     4     8    2
    10     5     6    1
    11     5     7    1
    12     5    31    1
    13     8     9    1
    14     8    10    1
    15    10    11    1
    16    10    12    1
    17    10    13    1
    18    15    17    1
    19    18    19   ar
    20    18    20   ar
    21    19    21   ar
    22    19    22    1
    23    20    23   ar
    24    20    24    1
    25    21    25   ar
    26    21    26    1
    27    23    25   ar
    28    23    27    1
    29    25    28    1
    30    28    29   un
    31    28    30   un
    32    31    32    1
    33    31    33    1
    34    31    34    1
@<TRIPOS>SUBSTRUCTURE
     1 1           1 GROUP             0 ****  ****    0  
@<TRIPOS>MOLECULE
Molecule Name_00046
    34    34     1     0     0
SMALL
NO_CHARGES
****
Generated from the CSD

@<TRIPOS>ATOM
     1 C11      1.3831  -0.3473   1.6043   C.3       1 1      0.0000
     2 C12      2.3910   0.6305   0.9238   C.3       1 1      0.0000
     3 H12A     3.3228   0.6151   1.4934   H         1 1      0.0000
     4 C13      2.6104   0.2511  -0.5147   C.2       1 1      0.0000
     5 C14      3.0843  -1.1448  -0.8256   C.3       1 1      0.0000
     6 H14B     3.8787  -1.3856  -0.1026   H         1 1      0.0000
     7 H14A     3.5811  -1.1043  -1.8066   H         1 1      0.0000
     8 N        2.3984   1.0944  -1.4830   N.pl3     1 1      0.0000
     9 HN       2.5732   0.7662  -2.4373   H         1 1      0.0000
    10 C        1.9683   2.5238  -1.3593   C.3       1 1      0.0000
    11 HC       2.0225   2.9711  -2.3528   H         1 1      0.0000
    12 HB       0.9373   2.5708  -0.9953   H         1 1      0.0000
    13 HA       2.6529   3.0292  -0.6769   H         1 1      0.0000
    14 H12B     1.9722   1.6415   0.9715   H         1 1      0.0000
    15 O1       1.3784   0.0991   3.0170   O.3       1 1      0.0000
    16 H11      1.7658  -1.3738   1.5450   H         1 1      0.0000
    17 OH1      0.7330  -0.4301   3.5569   H         1 1      0.0000
    18 C10      0.0197  -0.2668   0.9478   C.ar      1 1      0.0000
    19 C9      -0.5711   0.9844   0.7180   C.ar      1 1      0.0000
    20 C5      -0.6619  -1.4416   0.5906   C.ar      1 1      0.0000
    21 C8      -1.8445   1.0665   0.1520   C.ar      1 1      0.0000
    22 H9      -0.0420   1.8982   0.9732   H         1 1      0.0000
    23 C6      -1.9293  -1.3702   0.0158   C.ar      1 1      0.0000
    24 H5      -0.1961  -2.4099   0.7418   H         1 1      0.0000
    25 C7      -2.5025  -0.1142  -0.1872   C.ar      1 1      0.0000
    26 H8      -2.3201   2.0210  -0.0339   H         1 1      0.0000
    27 H6      -2.4718  -2.2613  -0.2725   H         1 1      0.0000
    28 NO      -3.8469  -0.0341  -0.7863   N.pl3     1 1      0.0000
    29 ON2     -4.4345  -1.1362  -1.0910   O.2       1 1      0.0000
    30 ON1     -4.3514   1.1343  -0.9701   O.2       1 1      0.0000
    31 C15      2.0108  -2.2478  -0.8230   C.3       1 1      0.0000
    32 H15A     1.0446  -1.8799  -1.1888   H         1 1      0.0000
    33 H15C     2.3211  -3.0524  -1.4964   H         1 1      0.0000
    34 H15B     1.8867  -2.6994   0.1692   H         1 1      0.0000
@<TRIPOS>BOND
     1     1     2    1
     2     1    15    1
     3     1    16    1
     4     1    18    1
     5     2     3    1
     6     2     4    1
     7     2    14    1
     8     4     5    1
     9     4     8    2
    10     5     6    1
    11     5     7    1
    12     5    31    1
    13     8     9    1
    14     8    10    1
    15    10    11    1
    16    10    12    1
    17    10    13    1
    18    15    17    1
    19    18    19   ar
    20    18    20   ar
    21    19    21   ar
    22    19    22    1
    23    20    23   ar
    24    20    24    1
    25    21    25   ar
    26    21    26    1
    27    23    25   ar
    28    23    27    1
    29    25    28    1
    30    28    29   un
    31    28    30   un
    32    31    32    1
    33    31    33    1
    34    31    34    1
@<TRIPOS>SUBSTRUCTURE
     1 1           1 GROUP             0 ****  ****    0  
@<TRIPOS>MOLECULE
Molecule Name_00047
    34    34     1     0     0
SMALL
NO_CHARGES
****
Generated from the CSD

@<TRIPOS>ATOM
     1 C11      1.0693  -0.4657  -0.3817   C.3       1 1      0.0000
     2 C12      1.8333   0.6323   0.4219   C.3       1 1      0.0000
     3 H12A     1.6449   0.4731   1.4859   H         1 1      0.0000
     4 C13      3.3027   0.5972   0.1044   C.2       1 1      0.0000
     5 C14      4.2604   0.1565   1.1807   C.3       1 1      0.0000
     6 H14B     4.0410   0.7585   2.0757   H         1 1      0.0000
     7 H14A     5.2674   0.4623   0.8595   H         1 1      0.0000
     8 N        3.7558   0.9335  -1.0684   N.pl3     1 1      0.0000
     9 HN       4.7692   0.8885  -1.2102   H         1 1      0.0000
    10 C        2.9609   1.4310  -2.2363   C.3       1 1      0.0000
    11 HC       3.6568   1.9034  -2.9311   H         1 1      0.0000
    12 HB       2.4657   0.5909  -2.7329   H         1 1      0.0000
    13 HA       2.2353   2.1589  -1.8711   H         1 1      0.0000
    14 H12B     1.4254   1.6089   0.1400   H         1 1      0.0000
    15 O1       1.6048  -1.7293   0.1765   O.3       1 1      0.0000
    16 H11      1.3297  -0.3946  -1.4451   H         1 1      0.0000
    17 OH1      1.1600  -2.5180  -0.2336   H         1 1      0.0000
    18 C10     -0.4292  -0.3233  -0.2074   C.ar      1 1      0.0000
    19 C9      -1.2937  -1.2372  -0.8280   C.ar      1 1      0.0000
    20 C5      -0.9538   0.7336   0.5541   C.ar      1 1      0.0000
    21 C8      -2.6765  -1.0892  -0.7072   C.ar      1 1      0.0000
    22 H9      -0.8954  -2.0688  -1.4023   H         1 1      0.0000
    23 C6      -2.3325   0.8844   0.6892   C.ar      1 1      0.0000
    24 H5      -0.2874   1.4261   1.0580   H         1 1      0.0000
    25 C7      -3.1716  -0.0281   0.0484   C.ar      1 1      0.0000
    26 H8      -3.3624  -1.7819  -1.1778   H         1 1      0.0000
    27 H6      -2.7600   1.6878   1.2752   H         1 1      0.0000
    28 NO      -4.6309   0.1329   0.1808   N.pl3     1 1      0.0000
    29 ON2     -5.0644   1.1189   0.8826   O.2       1 1      0.0000
    30 ON1     -5.3836  -0.7242  -0.4128   O.2       1 1      0.0000
    31 C15      4.2511  -1.3420   1.5324   C.3       1 1      0.0000
    32 H15A     4.4644  -1.9692   0.6585   H         1 1      0.0000
    33 H15C     5.0358  -1.5430   2.2679   H         1 1      0.0000
    34 H15B     3.3039  -1.6513   1.9916   H         1 1      0.0000
@<TRIPOS>BOND
     1     1     2    1
     2     1    15    1
     3     1    16    1
     4     1    18    1
     5     2     3    1
     6     2     4    1
     7     2    14    1
     8     4     5    1
     9     4     8    2
    10     5     6    1
    11     5     7    1
    12     5    31    1
    13     8     9    1
    14     8    10    1
    15    10    11    1
    16    10    12    1
    17    10    13    1
    18    15    17    1
    19    18    19   ar
    20    18    20   ar
    21    19    21   ar
    22    19    22    1
    23    20    23   ar
    24    20    24    1
    25    21    25   ar
    26    21    26    1
    27    23    25   ar
    28    23    27    1
    29    25    28    1
    30    28    29   un
    31    28    30   un
    32    31    32    1
    33    31    33    1
    34    31    34    1
@<TRIPOS>SUBSTRUCTURE
     1 1           1 GROUP             0 ****  ****    0  
@<TRIPOS>MOLECULE
Molecule Name_00048
    34    34     1     0     0
SMALL
NO_CHARGES
****
Generated from the CSD

@<TRIPOS>ATOM
     1 C11      0.9511  -0.3549   0.6294   C.3       1 1      0.0000
     2 C12      1.7195   0.2926  -0.5645   C.3       1 1      0.0000
     3 H12A     1.4897   1.3602  -0.5826   H         1 1      0.0000
     4 C13      3.1973   0.0422  -0.4437   C.2       1 1      0.0000
     5 C14      3.6726  -1.3737  -0.2461   C.3       1 1      0.0000
     6 H14B     3.2614  -1.9718  -1.0736   H         1 1      0.0000
     7 H14A     3.1828  -1.7530   0.6633   H         1 1      0.0000
     8 N        4.0616   1.0130  -0.5088   N.pl3     1 1      0.0000
     9 HN       5.0513   0.7668  -0.4143   H         1 1      0.0000
    10 C        3.7704   2.4744  -0.6601   C.3       1 1      0.0000
    11 HC       4.7122   3.0119  -0.5410   H         1 1      0.0000
    12 HB       3.3636   2.6703  -1.6570   H         1 1      0.0000
    13 HA       3.0653   2.7653   0.1197   H         1 1      0.0000
    14 H12B     1.3509  -0.1571  -1.4928   H         1 1      0.0000
    15 O1       1.4159   0.4292   1.7974   O.3       1 1      0.0000
    16 H11      1.2593  -1.4016   0.7439   H         1 1      0.0000
    17 OH1      0.9607   0.1338   2.6302   H         1 1      0.0000
    18 C10     -0.5473  -0.2791   0.4170   C.ar      1 1      0.0000
    19 C9      -1.2378  -1.3914  -0.0863   C.ar      1 1      0.0000
    20 C5      -1.2410   0.9085   0.7012   C.ar      1 1      0.0000
    21 C8      -2.6113  -1.3168  -0.3244   C.ar      1 1      0.0000
    22 H9      -0.7118  -2.3199  -0.2899   H         1 1      0.0000
    23 C6      -2.6139   0.9901   0.4765   C.ar      1 1      0.0000
    24 H5      -0.7146   1.7617   1.1164   H         1 1      0.0000
    25 C7      -3.2750  -0.1248  -0.0404   C.ar      1 1      0.0000
    26 H8      -3.1645  -2.1623  -0.7129   H         1 1      0.0000
    27 H6      -3.1708   1.8927   0.6927   H         1 1      0.0000
    28 NO      -4.7255  -0.0400  -0.2885   N.pl3     1 1      0.0000
    29 ON2     -5.4907  -0.8588   0.3414   O.2       1 1      0.0000
    30 ON1     -5.1390   0.8474  -1.1221   O.2       1 1      0.0000
    31 C15      5.1953  -1.5765  -0.1489   C.3       1 1      0.0000
    32 H15A     5.6274  -1.0337   0.7004   H         1 1      0.0000
    33 H15C     5.4066  -2.6381   0.0108   H         1 1      0.0000
    34 H15B     5.7088  -1.2901  -1.0751   H         1 1      0.0000
@<TRIPOS>BOND
     1     1     2    1
     2     1    15    1
     3     1    16    1
     4     1    18    1
     5     2     3    1
     6     2     4    1
     7     2    14    1
     8     4     5    1
     9     4     8    2
    10     5     6    1
    11     5     7    1
    12     5    31    1
    13     8     9    1
    14     8    10    1
    15    10    11    1
    16    10    12    1
    17    10    13    1
    18    15    17    1
    19    18    19   ar
    20    18    20   ar
    21    19    21   ar
    22    19    22    1
    23    20    23   ar
    24    20    24    1
    25    21    25   ar
    26    21    26    1
    27    23    25   ar
    28    23    27    1
    29    25    28    1
    30    28    29   un
    31    28    30   un
    32    31    32    1
    33    31    33    1
    34    31    34    1
@<TRIPOS>SUBSTRUCTURE
     1 1           1 GROUP             0 ****  ****    0  
@<TRIPOS>MOLECULE
Molecule Name_00049
    34    34     1     0     0
SMALL
NO_CHARGES
****
Generated from the CSD

@<TRIPOS>ATOM
     1 C11      0.9627  -0.6530   0.4646   C.3       1 1      0.0000
     2 C12      1.7518   0.6156   0.0139   C.3       1 1      0.0000
     3 H12A     1.6275   1.3869   0.7771   H         1 1      0.0000
     4 C13      3.2011   0.2861  -0.2150   C.2       1 1      0.0000
     5 C14      3.9541  -0.4370   0.8711   C.3       1 1      0.0000
     6 H14B     3.4342  -1.3915   1.0452   H         1 1      0.0000
     7 H14A     3.8208   0.1440   1.7959   H         1 1      0.0000
     8 N        3.8076   0.6075  -1.3208   N.pl3     1 1      0.0000
     9 HN       4.7965   0.3540  -1.4039   H         1 1      0.0000
    10 C        3.2325   1.3576  -2.4827   C.3       1 1      0.0000
    11 HC       4.0491   1.5706  -3.1739   H         1 1      0.0000
    12 HB       2.4811   0.7418  -2.9865   H         1 1      0.0000
    13 HA       2.7984   2.2860  -2.1094   H         1 1      0.0000
    14 H12B     1.3112   0.9786  -0.9208   H         1 1      0.0000
    15 O1       1.3820  -0.8305   1.8745   O.3       1 1      0.0000
    16 H11      1.2855  -1.5191  -0.1262   H         1 1      0.0000
    17 OH1      0.9095  -1.5978   2.2940   H         1 1      0.0000
    18 C10     -0.5306  -0.4490   0.3067   C.ar      1 1      0.0000
    19 C9      -1.1879  -0.9543  -0.8247   C.ar      1 1      0.0000
    20 C5      -1.2520   0.2636   1.2783   C.ar      1 1      0.0000
    21 C8      -2.5555  -0.7351  -0.9988   C.ar      1 1      0.0000
    22 H9      -0.6407  -1.5236  -1.5707   H         1 1      0.0000
    23 C6      -2.6195   0.4793   1.1189   C.ar      1 1      0.0000
    24 H5      -0.7518   0.6321   2.1680   H         1 1      0.0000
    25 C7      -3.2470  -0.0191  -0.0235   C.ar      1 1      0.0000
    26 H8      -3.0833  -1.1151  -1.8641   H         1 1      0.0000
    27 H6      -3.1975   1.0210   1.8565   H         1 1      0.0000
    28 NO      -4.6916   0.2148  -0.2010   N.pl3     1 1      0.0000
    29 ON2     -5.4594  -0.8127  -0.2878   O.2       1 1      0.0000
    30 ON1     -5.0975   1.4335  -0.2601   O.2       1 1      0.0000
    31 C15      5.4514  -0.6861   0.6156   C.3       1 1      0.0000
    32 H15A     6.0070   0.2512   0.4904   H         1 1      0.0000
    33 H15C     5.8827  -1.1989   1.4805   H         1 1      0.0000
    34 H15B     5.6185  -1.3375  -0.2511   H         1 1      0.0000
@<TRIPOS>BOND
     1     1     2    1
     2     1    15    1
     3     1    16    1
     4     1    18    1
     5     2     3    1
     6     2     4    1
     7     2    14    1
     8     4     5    1
     9     4     8    2
    10     5     6    1
    11     5     7    1
    12     5    31    1
    13     8     9    1
    14     8    10    1
    15    10    11    1
    16    10    12    1
    17    10    13    1
    18    15    17    1
    19    18    19   ar
    20    18    20   ar
    21    19    21   ar
    22    19    22    1
    23    20    23   ar
    24    20    24    1
    25    21    25   ar
    26    21    26    1
    27    23    25   ar
    28    23    27    1
    29    25    28    1
    30    28    29   un
    31    28    30   un
    32    31    32    1
    33    31    33    1
    34    31    34    1
@<TRIPOS>SUBSTRUCTURE
     1 1           1 GROUP             0 ****  ****    0  
@<TRIPOS>MOLECULE
Molecule Name_00050
    34    34     1     0     0
SMALL
NO_CHARGES
****
Generated from the CSD

@<TRIPOS>ATOM
     1 C11      0.9668   0.0144  -0.6901   C.3       1 1      0.0000
     2 C12      1.7397  -0.3423   0.6178   C.3       1 1      0.0000
     3 H12A     1.5022  -1.3739   0.8869   H         1 1      0.0000
     4 C13      3.2183  -0.1405   0.4330   C.2       1 1      0.0000
     5 C14      4.1129  -1.3525   0.4185   C.3       1 1      0.0000
     6 H14B     3.7378  -2.0224  -0.3703   H         1 1      0.0000
     7 H14A     3.9437  -1.8880   1.3648   H         1 1      0.0000
     8 N        3.7318   1.0461   0.2844   N.pl3     1 1      0.0000
     9 HN       4.7476   1.1061   0.1674   H         1 1      0.0000
    10 C        3.0057   2.3558   0.3128   C.3       1 1      0.0000
    11 HC       3.7451   3.1386   0.4876   H         1 1      0.0000
    12 HB       2.5143   2.5284  -0.6498   H         1 1      0.0000
    13 HA       2.2815   2.3279   1.1279   H         1 1      0.0000
    14 H12B     1.3817   0.3156   1.4171   H         1 1      0.0000
    15 O1       1.4052  -1.0345  -1.6401   O.3       1 1      0.0000
    16 H11      1.2895   0.9976  -1.0542   H         1 1      0.0000
    17 OH1      0.9444  -0.9389  -2.5157   H         1 1      0.0000
    18 C10     -0.5299   0.0182  -0.4534   C.ar      1 1      0.0000
    19 C9      -1.1971   1.2308  -0.2253   C.ar      1 1      0.0000
    20 C5      -1.2452  -1.1903  -0.4393   C.ar      1 1      0.0000
    21 C8      -2.5685   1.2398   0.0350   C.ar      1 1      0.0000
    22 H9      -0.6545   2.1715  -0.2542   H         1 1      0.0000
    23 C6      -2.6163  -1.1913  -0.1903   C.ar      1 1      0.0000
    24 H5      -0.7370  -2.1273  -0.6425   H         1 1      0.0000
    25 C7      -3.2538   0.0265   0.0501   C.ar      1 1      0.0000
    26 H8      -3.1039   2.1634   0.2144   H         1 1      0.0000
    27 H6      -3.1896  -2.1093  -0.1796   H         1 1      0.0000
    28 NO      -4.7024   0.0294   0.3232   N.pl3     1 1      0.0000
    29 ON2     -5.4626   0.6872  -0.4781   O.2       1 1      0.0000
    30 ON1     -5.1192  -0.6254   1.3484   O.2       1 1      0.0000
    31 C15      5.6168  -1.0900   0.2224   C.3       1 1      0.0000
    32 H15A     6.0318  -0.4671   1.0240   H         1 1      0.0000
    33 H15C     6.1540  -2.0428   0.2489   H         1 1      0.0000
    34 H15B     5.8318  -0.6355  -0.7526   H         1 1      0.0000
@<TRIPOS>BOND
     1     1     2    1
     2     1    15    1
     3     1    16    1
     4     1    18    1
     5     2     3    1
     6     2     4    1
     7     2    14    1
     8     4     5    1
     9     4     8    2
    10     5     6    1
    11     5     7    1
    12     5    31    1
    13     8     9    1
    14     8    10    1
    15    10    11    1
    16    10    12    1
    17    10    13    1
    18    15    17    1
    19    18    19   ar
    20    18    20   ar
    21    19    21   ar
    22    19    22    1
    23    20    23   ar
    24    20    24    1
    25    21    25   ar
    26    21    26    1
    27    23    25   ar
    28    23    27    1
    29    25    28    1
    30    28    29   un
    31    28    30   un
    32    31    32    1
    33    31    33    1
    34    31    34    1
@<TRIPOS>SUBSTRUCTURE
     1 1           1 GROUP             0 ****  ****    0  
@<TRIPOS>MOLECULE
Molecule Name_00051
    34    34     1     0     0
SMALL
NO_CHARGES
****
Generated from the CSD

@<TRIPOS>ATOM
     1 C11      1.0040  -0.0486   0.8215   C.3       1 1      0.0000
     2 C12      1.8349   0.1732  -0.4807   C.3       1 1      0.0000
     3 H12A     1.6130   1.1715  -0.8641   H         1 1      0.0000
     4 C13      3.3032  -0.0071  -0.2111   C.2       1 1      0.0000
     5 C14      3.8643  -1.4052  -0.1927   C.3       1 1      0.0000
     6 H14B     3.2398  -1.9956   0.4951   H         1 1      0.0000
     7 H14A     4.8543  -1.3477   0.2841   H         1 1      0.0000
     8 N        4.0881   1.0092   0.0009   N.pl3     1 1      0.0000
     9 HN       5.0761   0.8090   0.1815   H         1 1      0.0000
    10 C        3.7000   2.4547   0.0594   C.3       1 1      0.0000
    11 HC       4.5844   3.0434  -0.1883   H         1 1      0.0000
    12 HB       2.9120   2.6572  -0.6726   H         1 1      0.0000
    13 HA       3.3660   2.6784   1.0733   H         1 1      0.0000
    14 H12B     1.5101  -0.5635  -1.2234   H         1 1      0.0000
    15 O1       1.4040   1.0924   1.6777   O.3       1 1      0.0000
    16 H11      1.3069  -0.9891   1.2982   H         1 1      0.0000
    17 OH1      0.9048   1.0865   2.5373   H         1 1      0.0000
    18 C10     -0.4809  -0.0780   0.5207   C.ar      1 1      0.0000
    19 C9      -1.2656  -1.1443   0.9840   C.ar      1 1      0.0000
    20 C5      -1.0673   0.9470  -0.2394   C.ar      1 1      0.0000
    21 C8      -2.6260  -1.2009   0.6762   C.ar      1 1      0.0000
    22 H9      -0.8235  -1.9307   1.5893   H         1 1      0.0000
    23 C6      -2.4265   0.9052  -0.5437   C.ar      1 1      0.0000
    24 H5      -0.4687   1.7873  -0.5760   H         1 1      0.0000
    25 C7      -3.1821  -0.1748  -0.0852   C.ar      1 1      0.0000
    26 H8      -3.2506  -2.0143   1.0226   H         1 1      0.0000
    27 H6      -2.9018   1.6860  -1.1233   H         1 1      0.0000
    28 NO      -4.6184  -0.2281  -0.4127   N.pl3     1 1      0.0000
    29 ON2     -5.0434  -1.2387  -1.0841   O.2       1 1      0.0000
    30 ON1     -5.3606   0.7408  -0.0082   O.2       1 1      0.0000
    31 C15      3.9745  -2.1157  -1.5536   C.3       1 1      0.0000
    32 H15A     4.6343  -1.5773  -2.2445   H         1 1      0.0000
    33 H15C     4.4099  -3.1086  -1.4059   H         1 1      0.0000
    34 H15B     2.9928  -2.2695  -2.0186   H         1 1      0.0000
@<TRIPOS>BOND
     1     1     2    1
     2     1    15    1
     3     1    16    1
     4     1    18    1
     5     2     3    1
     6     2     4    1
     7     2    14    1
     8     4     5    1
     9     4     8    2
    10     5     6    1
    11     5     7    1
    12     5    31    1
    13     8     9    1
    14     8    10    1
    15    10    11    1
    16    10    12    1
    17    10    13    1
    18    15    17    1
    19    18    19   ar
    20    18    20   ar
    21    19    21   ar
    22    19    22    1
    23    20    23   ar
    24    20    24    1
    25    21    25   ar
    26    21    26    1
    27    23    25   ar
    28    23    27    1
    29    25    28    1
    30    28    29   un
    31    28    30   un
    32    31    32    1
    33    31    33    1
    34    31    34    1
@<TRIPOS>SUBSTRUCTURE
     1 1           1 GROUP             0 ****  ****    0  
@<TRIPOS>MOLECULE
Molecule Name_00052
    34    34     1     0     0
SMALL
NO_CHARGES
****
Generated from the CSD

@<TRIPOS>ATOM
     1 C11      1.0818  -0.1165   0.5641   C.3       1 1      0.0000
     2 C12      1.8058   0.3051  -0.7525   C.3       1 1      0.0000
     3 H12A     1.5462   1.3435  -0.9700   H         1 1      0.0000
     4 C13      3.2922   0.1168  -0.6251   C.2       1 1      0.0000
     5 C14      3.8661  -1.2554  -0.8648   C.3       1 1      0.0000
     6 H14B     4.9490  -1.1312  -1.0182   H         1 1      0.0000
     7 H14A     3.4701  -1.6051  -1.8300   H         1 1      0.0000
     8 N        4.0816   1.1050  -0.3184   N.pl3     1 1      0.0000
     9 HN       5.0826   0.9004  -0.2457   H         1 1      0.0000
    10 C        3.6858   2.5160  -0.0086   C.3       1 1      0.0000
    11 HC       4.5927   3.1222  -0.0185   H         1 1      0.0000
    12 HB       2.9945   2.8837  -0.7731   H         1 1      0.0000
    13 HA       3.2277   2.5333   0.9812   H         1 1      0.0000
    14 H12B     1.4297  -0.3240  -1.5664   H         1 1      0.0000
    15 O1       1.5418   0.8955   1.5435   O.3       1 1      0.0000
    16 H11      1.4268  -1.1107   0.8741   H         1 1      0.0000
    17 OH1      1.1123   0.7569   2.4291   H         1 1      0.0000
    18 C10     -0.4220  -0.1276   0.3782   C.ar      1 1      0.0000
    19 C9      -1.1615  -1.2629   0.7410   C.ar      1 1      0.0000
    20 C5      -1.0725   0.9863  -0.1772   C.ar      1 1      0.0000
    21 C8      -2.5417  -1.2977   0.5346   C.ar      1 1      0.0000
    22 H9      -0.6684  -2.1208   1.1895   H         1 1      0.0000
    23 C6      -2.4513   0.9655  -0.3781   C.ar      1 1      0.0000
    24 H5      -0.5073   1.8764  -0.4335   H         1 1      0.0000
    25 C7      -3.1621  -0.1820  -0.0243   C.ar      1 1      0.0000
    26 H8      -3.1323  -2.1632   0.8064   H         1 1      0.0000
    27 H6      -2.9754   1.8136  -0.7995   H         1 1      0.0000
    28 NO      -4.6195  -0.2121  -0.2437   N.pl3     1 1      0.0000
    29 ON2     -5.0905  -1.1222  -1.0199   O.2       1 1      0.0000
    30 ON1     -5.3329   0.6754   0.3535   O.2       1 1      0.0000
    31 C15      3.6009  -2.3077   0.2268   C.3       1 1      0.0000
    32 H15A     2.6235  -2.7894   0.1025   H         1 1      0.0000
    33 H15C     4.3560  -3.0963   0.1562   H         1 1      0.0000
    34 H15B     3.6826  -1.8843   1.2356   H         1 1      0.0000
@<TRIPOS>BOND
     1     1     2    1
     2     1    15    1
     3     1    16    1
     4     1    18    1
     5     2     3    1
     6     2     4    1
     7     2    14    1
     8     4     5    1
     9     4     8    2
    10     5     6    1
    11     5     7    1
    12     5    31    1
    13     8     9    1
    14     8    10    1
    15    10    11    1
    16    10    12    1
    17    10    13    1
    18    15    17    1
    19    18    19   ar
    20    18    20   ar
    21    19    21   ar
    22    19    22    1
    23    20    23   ar
    24    20    24    1
    25    21    25   ar
    26    21    26    1
    27    23    25   ar
    28    23    27    1
    29    25    28    1
    30    28    29   un
    31    28    30   un
    32    31    32    1
    33    31    33    1
    34    31    34    1
@<TRIPOS>SUBSTRUCTURE
     1 1           1 GROUP             0 ****  ****    0  
@<TRIPOS>MOLECULE
Molecule Name_00053
    34    34     1     0     0
SMALL
NO_CHARGES
****
Generated from the CSD

@<TRIPOS>ATOM
     1 C11      1.0047  -0.1294  -0.8340   C.3       1 1      0.0000
     2 C12      1.8453  -0.0341   0.4773   C.3       1 1      0.0000
     3 H12A     1.7084  -0.9593   1.0414   H         1 1      0.0000
     4 C13      3.2939   0.2180   0.1626   C.2       1 1      0.0000
     5 C14      4.1794  -0.9624  -0.1414   C.3       1 1      0.0000
     6 H14B     5.0981  -0.5679  -0.6018   H         1 1      0.0000
     7 H14A     3.6802  -1.5436  -0.9311   H         1 1      0.0000
     8 N        3.7893   1.4214   0.1454   N.pl3     1 1      0.0000
     9 HN       4.7855   1.5153  -0.0733   H         1 1      0.0000
    10 C        3.0730   2.6987   0.4595   C.3       1 1      0.0000
    11 HC       3.8166   3.4965   0.4813   H         1 1      0.0000
    12 HB       2.3347   2.9113  -0.3199   H         1 1      0.0000
    13 HA       2.5990   2.5939   1.4363   H         1 1      0.0000
    14 H12B     1.4548   0.7969   1.0745   H         1 1      0.0000
    15 O1       1.4601  -1.4037  -1.4372   O.3       1 1      0.0000
    16 H11      1.2612   0.7042  -1.4995   H         1 1      0.0000
    17 OH1      0.9614  -1.6014  -2.2740   H         1 1      0.0000
    18 C10     -0.4799  -0.1089  -0.5310   C.ar      1 1      0.0000
    19 C9      -1.3158   0.7982  -1.1987   C.ar      1 1      0.0000
    20 C5      -1.0155  -0.9793   0.4322   C.ar      1 1      0.0000
    21 C8      -2.6773   0.8527  -0.8958   C.ar      1 1      0.0000
    22 H9      -0.9126   1.4610  -1.9592   H         1 1      0.0000
    23 C6      -2.3752  -0.9399   0.7348   C.ar      1 1      0.0000
    24 H5      -0.3766  -1.7010   0.9308   H         1 1      0.0000
    25 C7      -3.1827  -0.0171   0.0687   C.ar      1 1      0.0000
    26 H8      -3.3410   1.5449  -1.3979   H         1 1      0.0000
    27 H6      -2.8118  -1.6042   1.4694   H         1 1      0.0000
    28 NO      -4.6199   0.0347   0.3923   N.pl3     1 1      0.0000
    29 ON2     -5.0939   1.1418   0.8423   O.2       1 1      0.0000
    30 ON1     -5.3138  -1.0318   0.2065   O.2       1 1      0.0000
    31 C15      4.5302  -1.8776   1.0455   C.3       1 1      0.0000
    32 H15A     3.6364  -2.3285   1.4931   H         1 1      0.0000
    33 H15C     5.1585  -2.7002   0.6910   H         1 1      0.0000
    34 H15B     5.1078  -1.3507   1.8152   H         1 1      0.0000
@<TRIPOS>BOND
     1     1     2    1
     2     1    15    1
     3     1    16    1
     4     1    18    1
     5     2     3    1
     6     2     4    1
     7     2    14    1
     8     4     5    1
     9     4     8    2
    10     5     6    1
    11     5     7    1
    12     5    31    1
    13     8     9    1
    14     8    10    1
    15    10    11    1
    16    10    12    1
    17    10    13    1
    18    15    17    1
    19    18    19   ar
    20    18    20   ar
    21    19    21   ar
    22    19    22    1
    23    20    23   ar
    24    20    24    1
    25    21    25   ar
    26    21    26    1
    27    23    25   ar
    28    23    27    1
    29    25    28    1
    30    28    29   un
    31    28    30   un
    32    31    32    1
    33    31    33    1
    34    31    34    1
@<TRIPOS>SUBSTRUCTURE
     1 1           1 GROUP             0 ****  ****    0  
@<TRIPOS>MOLECULE
Molecule Name_00054
    34    34     1     0     0
SMALL
NO_CHARGES
****
Generated from the CSD

@<TRIPOS>ATOM
     1 C11      1.2400  -0.0874   1.5863   C.3       1 1      0.0000
     2 C12      2.2833   0.6423   0.6841   C.3       1 1      0.0000
     3 H12A     3.2155   0.7382   1.2452   H         1 1      0.0000
     4 C13      2.4834  -0.1031  -0.6065   C.2       1 1      0.0000
     5 C14      2.8522  -1.5625  -0.5439   C.3       1 1      0.0000
     6 H14B     2.6782  -1.9836  -1.5459   H         1 1      0.0000
     7 H14A     2.1172  -2.0517   0.1129   H         1 1      0.0000
     8 N        2.3428   0.4811  -1.7610   N.pl3     1 1      0.0000
     9 HN       2.4988  -0.0894  -2.5972   H         1 1      0.0000
    10 C        2.0215   1.9223  -2.0120   C.3       1 1      0.0000
    11 HC       2.1141   2.0983  -3.0846   H         1 1      0.0000
    12 HB       0.9953   2.1341  -1.6963   H         1 1      0.0000
    13 HA       2.7391   2.5334  -1.4630   H         1 1      0.0000
    14 H12B     1.9047   1.6469   0.4668   H         1 1      0.0000
    15 O1       1.3180   0.6563   2.8652   O.3       1 1      0.0000
    16 H11      1.5520  -1.1269   1.7465   H         1 1      0.0000
    17 OH1      0.6602   0.3062   3.5230   H         1 1      0.0000
    18 C10     -0.1390  -0.0541   0.9590   C.ar      1 1      0.0000
    19 C9      -1.1338   0.7709   1.5043   C.ar      1 1      0.0000
    20 C5      -0.4289  -0.8637  -0.1514   C.ar      1 1      0.0000
    21 C8      -2.4186   0.7766   0.9586   C.ar      1 1      0.0000
    22 H9      -0.9119   1.4148   2.3507   H         1 1      0.0000
    23 C6      -1.7056  -0.8578  -0.7098   C.ar      1 1      0.0000
    24 H5       0.3458  -1.4823  -0.5925   H         1 1      0.0000
    25 C7      -2.6823  -0.0409  -0.1388   C.ar      1 1      0.0000
    26 H8      -3.2019   1.4047   1.3633   H         1 1      0.0000
    27 H6      -1.9513  -1.4691  -1.5686   H         1 1      0.0000
    28 NO      -4.0368  -0.0385  -0.7203   N.pl3     1 1      0.0000
    29 ON2     -4.2566  -0.8006  -1.7320   O.2       1 1      0.0000
    30 ON1     -4.9179   0.7275  -0.1814   O.2       1 1      0.0000
    31 C15      4.2806  -1.8871  -0.0713   C.3       1 1      0.0000
    32 H15A     4.4672  -1.5254   0.9470   H         1 1      0.0000
    33 H15C     4.4147  -2.9728  -0.0533   H         1 1      0.0000
    34 H15B     5.0409  -1.4882  -0.7542   H         1 1      0.0000
@<TRIPOS>BOND
     1     1     2    1
     2     1    15    1
     3     1    16    1
     4     1    18    1
     5     2     3    1
     6     2     4    1
     7     2    14    1
     8     4     5    1
     9     4     8    2
    10     5     6    1
    11     5     7    1
    12     5    31    1
    13     8     9    1
    14     8    10    1
    15    10    11    1
    16    10    12    1
    17    10    13    1
    18    15    17    1
    19    18    19   ar
    20    18    20   ar
    21    19    21   ar
    22    19    22    1
    23    20    23   ar
    24    20    24    1
    25    21    25   ar
    26    21    26    1
    27    23    25   ar
    28    23    27    1
    29    25    28    1
    30    28    29   un
    31    28    30   un
    32    31    32    1
    33    31    33    1
    34    31    34    1
@<TRIPOS>SUBSTRUCTURE
     1 1           1 GROUP             0 ****  ****    0  
@<TRIPOS>MOLECULE
Molecule Name_00055
    34    34     1     0     0
SMALL
NO_CHARGES
****
Generated from the CSD

@<TRIPOS>ATOM
     1 C11      1.0019   0.0256   0.7922   C.3       1 1      0.0000
     2 C12      1.8497  -0.2658  -0.4851   C.3       1 1      0.0000
     3 H12A     1.5003   0.3891  -1.2863   H         1 1      0.0000
     4 C13      3.3146  -0.0726  -0.2058   C.2       1 1      0.0000
     5 C14      4.0752  -1.1948   0.4515   C.3       1 1      0.0000
     6 H14B     3.5141  -1.4809   1.3543   H         1 1      0.0000
     7 H14A     5.0228  -0.7704   0.8158   H         1 1      0.0000
     8 N        3.9297   1.0305  -0.5201   N.pl3     1 1      0.0000
     9 HN       4.9272   1.0914  -0.2957   H         1 1      0.0000
    10 C        3.3295   2.2563  -1.1369   C.3       1 1      0.0000
    11 HC       4.1449   2.8455  -1.5589   H         1 1      0.0000
    12 HB       2.6377   1.9693  -1.9349   H         1 1      0.0000
    13 HA       2.8196   2.8188  -0.3537   H         1 1      0.0000
    14 H12B     1.6722  -1.3044  -0.7841   H         1 1      0.0000
    15 O1       1.4743   1.3646   1.2150   O.3       1 1      0.0000
    16 H11      1.2400  -0.7103   1.5703   H         1 1      0.0000
    17 OH1      1.1703   1.5761   2.1375   H         1 1      0.0000
    18 C10     -0.4807  -0.0142   0.4816   C.ar      1 1      0.0000
    19 C9      -1.3460   0.9066   1.0904   C.ar      1 1      0.0000
    20 C5      -0.9920  -0.9845  -0.3956   C.ar      1 1      0.0000
    21 C8      -2.7186   0.8507   0.8424   C.ar      1 1      0.0000
    22 H9      -0.9558   1.6726   1.7546   H         1 1      0.0000
    23 C6      -2.3594  -1.0425  -0.6577   C.ar      1 1      0.0000
    24 H5      -0.3220  -1.6808  -0.8894   H         1 1      0.0000
    25 C7      -3.2014  -0.1259  -0.0267   C.ar      1 1      0.0000
    26 H8      -3.4051   1.5505   1.3015   H         1 1      0.0000
    27 H6      -2.7761  -1.7778  -1.3339   H         1 1      0.0000
    28 NO      -4.6497  -0.1895  -0.2936   N.pl3     1 1      0.0000
    29 ON2     -5.0720  -1.0985  -1.0986   O.2       1 1      0.0000
    30 ON1     -5.4046   0.6699   0.2939   O.2       1 1      0.0000
    31 C15      4.3518  -2.4345  -0.4179   C.3       1 1      0.0000
    32 H15A     4.9557  -2.1896  -1.3000   H         1 1      0.0000
    33 H15C     4.9222  -3.1627   0.1665   H         1 1      0.0000
    34 H15B     3.4262  -2.9358  -0.7267   H         1 1      0.0000
@<TRIPOS>BOND
     1     1     2    1
     2     1    15    1
     3     1    16    1
     4     1    18    1
     5     2     3    1
     6     2     4    1
     7     2    14    1
     8     4     5    1
     9     4     8    2
    10     5     6    1
    11     5     7    1
    12     5    31    1
    13     8     9    1
    14     8    10    1
    15    10    11    1
    16    10    12    1
    17    10    13    1
    18    15    17    1
    19    18    19   ar
    20    18    20   ar
    21    19    21   ar
    22    19    22    1
    23    20    23   ar
    24    20    24    1
    25    21    25   ar
    26    21    26    1
    27    23    25   ar
    28    23    27    1
    29    25    28    1
    30    28    29   un
    31    28    30   un
    32    31    32    1
    33    31    33    1
    34    31    34    1
@<TRIPOS>SUBSTRUCTURE
     1 1           1 GROUP             0 ****  ****    0  
@<TRIPOS>MOLECULE
Molecule Name_00056
    34    34     1     0     0
SMALL
NO_CHARGES
****
Generated from the CSD

@<TRIPOS>ATOM
     1 C11      1.0783  -0.1451   0.5545   C.3       1 1      0.0000
     2 C12      1.8267  -0.2595  -0.8100   C.3       1 1      0.0000
     3 H12A     1.4379   0.5097  -1.4808   H         1 1      0.0000
     4 C13      3.3119  -0.1295  -0.6138   C.2       1 1      0.0000
     5 C14      4.0892  -1.3458  -0.1824   C.3       1 1      0.0000
     6 H14B     5.1526  -1.1350  -0.3734   H         1 1      0.0000
     7 H14A     3.8216  -2.1596  -0.8729   H         1 1      0.0000
     8 N        3.9301   0.9989  -0.8101   N.pl3     1 1      0.0000
     9 HN       4.9421   1.0127  -0.6530   H         1 1      0.0000
    10 C        3.3181   2.3097  -1.1985   C.3       1 1      0.0000
    11 HC       4.1326   3.0113  -1.3840   H         1 1      0.0000
    12 HB       2.7285   2.1875  -2.1123   H         1 1      0.0000
    13 HA       2.6986   2.6566  -0.3705   H         1 1      0.0000
    14 H12B     1.6033  -1.2411  -1.2416   H         1 1      0.0000
    15 O1       1.6119   1.1116   1.1300   O.3       1 1      0.0000
    16 H11      1.3526  -0.9895   1.1990   H         1 1      0.0000
    17 OH1      1.2764   1.2517   2.0551   H         1 1      0.0000
    18 C10     -0.4230  -0.1186   0.3507   C.ar      1 1      0.0000
    19 C9      -1.2206   0.7159   1.1475   C.ar      1 1      0.0000
    20 C5      -1.0184  -0.9438  -0.6172   C.ar      1 1      0.0000
    21 C8      -2.6082   0.7158   0.9951   C.ar      1 1      0.0000
    22 H9      -0.7660   1.3717   1.8847   H         1 1      0.0000
    23 C6      -2.4018  -0.9440  -0.7841   C.ar      1 1      0.0000
    24 H5      -0.4020  -1.5702  -1.2538   H         1 1      0.0000
    25 C7      -3.1747  -0.1172   0.0322   C.ar      1 1      0.0000
    26 H8      -3.2433   1.3510   1.5992   H         1 1      0.0000
    27 H6      -2.8829  -1.5673  -1.5268   H         1 1      0.0000
    28 NO      -4.6393  -0.1210  -0.1344   N.pl3     1 1      0.0000
    29 ON2     -5.1393  -0.8975  -1.0287   O.2       1 1      0.0000
    30 ON1     -5.3298   0.6542   0.6244   O.2       1 1      0.0000
    31 C15      3.8909  -1.8028   1.2739   C.3       1 1      0.0000
    32 H15A     2.9640  -2.3749   1.4011   H         1 1      0.0000
    33 H15C     4.7150  -2.4641   1.5580   H         1 1      0.0000
    34 H15B     3.9085  -0.9600   1.9761   H         1 1      0.0000
@<TRIPOS>BOND
     1     1     2    1
     2     1    15    1
     3     1    16    1
     4     1    18    1
     5     2     3    1
     6     2     4    1
     7     2    14    1
     8     4     5    1
     9     4     8    2
    10     5     6    1
    11     5     7    1
    12     5    31    1
    13     8     9    1
    14     8    10    1
    15    10    11    1
    16    10    12    1
    17    10    13    1
    18    15    17    1
    19    18    19   ar
    20    18    20   ar
    21    19    21   ar
    22    19    22    1
    23    20    23   ar
    24    20    24    1
    25    21    25   ar
    26    21    26    1
    27    23    25   ar
    28    23    27    1
    29    25    28    1
    30    28    29   un
    31    28    30   un
    32    31    32    1
    33    31    33    1
    34    31    34    1
@<TRIPOS>SUBSTRUCTURE
     1 1           1 GROUP             0 ****  ****    0  
@<TRIPOS>MOLECULE
Molecule Name_00057
    34    34     1     0     0
SMALL
NO_CHARGES
****
Generated from the CSD

@<TRIPOS>ATOM
     1 C11      0.9831  -0.2714  -0.7846   C.3       1 1      0.0000
     2 C12      1.8457   0.4103   0.3228   C.3       1 1      0.0000
     3 H12A     1.5707  -0.0220   1.2874   H         1 1      0.0000
     4 C13      3.3116   0.2413   0.0335   C.2       1 1      0.0000
     5 C14      4.0154  -0.9761   0.5740   C.3       1 1      0.0000
     6 H14B     4.9700  -1.0651   0.0333   H         1 1      0.0000
     7 H14A     3.4220  -1.8515   0.2701   H         1 1      0.0000
     8 N        3.9738   1.1147  -0.6684   N.pl3     1 1      0.0000
     9 HN       4.9705   0.9348  -0.8213   H         1 1      0.0000
    10 C        3.4515   2.3939  -1.2464   C.3       1 1      0.0000
    11 HC       4.3019   2.9430  -1.6531   H         1 1      0.0000
    12 HB       2.7419   2.1753  -2.0504   H         1 1      0.0000
    13 HA       2.9791   2.9636  -0.4451   H         1 1      0.0000
    14 H12B     1.6006   1.4777   0.3388   H         1 1      0.0000
    15 O1       1.5073  -1.6567  -0.8185   O.3       1 1      0.0000
    16 H11      1.1686   0.2151  -1.7503   H         1 1      0.0000
    17 OH1      1.0327  -2.2018  -1.5010   H         1 1      0.0000
    18 C10     -0.4922  -0.1991  -0.4462   C.ar      1 1      0.0000
    19 C9      -1.3277  -1.2891  -0.7316   C.ar      1 1      0.0000
    20 C5      -1.0277   0.9641   0.1305   C.ar      1 1      0.0000
    21 C8      -2.6953  -1.2154  -0.4616   C.ar      1 1      0.0000
    22 H9      -0.9178  -2.1996  -1.1593   H         1 1      0.0000
    23 C6      -2.3899   1.0440   0.4132   C.ar      1 1      0.0000
    24 H5      -0.3795   1.7985   0.3778   H         1 1      0.0000
    25 C7      -3.2027  -0.0475   0.1045   C.ar      1 1      0.0000
    26 H8      -3.3589  -2.0438  -0.6740   H         1 1      0.0000
    27 H6      -2.8246   1.9277   0.8622   H         1 1      0.0000
    28 NO      -4.6459   0.0361   0.3930   N.pl3     1 1      0.0000
    29 ON2     -5.0912   1.1231   0.9152   O.2       1 1      0.0000
    30 ON1     -5.3734  -0.9847   0.1064   O.2       1 1      0.0000
    31 C15      4.2601  -1.0062   2.0934   C.3       1 1      0.0000
    32 H15A     3.3218  -0.9722   2.6601   H         1 1      0.0000
    33 H15C     4.7584  -1.9435   2.3582   H         1 1      0.0000
    34 H15B     4.9228  -0.1952   2.4199   H         1 1      0.0000
@<TRIPOS>BOND
     1     1     2    1
     2     1    15    1
     3     1    16    1
     4     1    18    1
     5     2     3    1
     6     2     4    1
     7     2    14    1
     8     4     5    1
     9     4     8    2
    10     5     6    1
    11     5     7    1
    12     5    31    1
    13     8     9    1
    14     8    10    1
    15    10    11    1
    16    10    12    1
    17    10    13    1
    18    15    17    1
    19    18    19   ar
    20    18    20   ar
    21    19    21   ar
    22    19    22    1
    23    20    23   ar
    24    20    24    1
    25    21    25   ar
    26    21    26    1
    27    23    25   ar
    28    23    27    1
    29    25    28    1
    30    28    29   un
    31    28    30   un
    32    31    32    1
    33    31    33    1
    34    31    34    1
@<TRIPOS>SUBSTRUCTURE
     1 1           1 GROUP             0 ****  ****    0  
@<TRIPOS>MOLECULE
Molecule Name_00058
    34    34     1     0     0
SMALL
NO_CHARGES
****
Generated from the CSD

@<TRIPOS>ATOM
     1 C11      1.1108  -0.5244   0.5409   C.3       1 1      0.0000
     2 C12      1.8522   0.7978   0.1707   C.3       1 1      0.0000
     3 H12A     1.8220   1.4629   1.0365   H         1 1      0.0000
     4 C13      3.2631   0.5119  -0.2639   C.2       1 1      0.0000
     5 C14      4.1394  -0.3169   0.6389   C.3       1 1      0.0000
     6 H14B     4.0280   0.0860   1.6572   H         1 1      0.0000
     7 H14A     5.1816  -0.1105   0.3528   H         1 1      0.0000
     8 N        3.7337   0.9590  -1.3920   N.pl3     1 1      0.0000
     9 HN       4.7051   0.7273  -1.6196   H         1 1      0.0000
    10 C        3.0251   1.8249  -2.3877   C.3       1 1      0.0000
    11 HC       3.7536   2.1214  -3.1437   H         1 1      0.0000
    12 HB       2.2178   1.2592  -2.8631   H         1 1      0.0000
    13 HA       2.6403   2.7019  -1.8658   H         1 1      0.0000
    14 H12B     1.3098   1.2754  -0.6523   H         1 1      0.0000
    15 O1       1.5077  -0.7530   1.9499   O.3       1 1      0.0000
    16 H11      1.4842  -1.3456  -0.0835   H         1 1      0.0000
    17 OH1      1.0610  -1.5599   2.3207   H         1 1      0.0000
    18 C10     -0.3864  -0.3778   0.3584   C.ar      1 1      0.0000
    19 C9      -1.0925  -1.3226  -0.4007   C.ar      1 1      0.0000
    20 C5      -1.0631   0.7132   0.9277   C.ar      1 1      0.0000
    21 C8      -2.4646  -1.1726  -0.6089   C.ar      1 1      0.0000
    22 H9      -0.5798  -2.1798  -0.8278   H         1 1      0.0000
    23 C6      -2.4346   0.8666   0.7342   C.ar      1 1      0.0000
    24 H5      -0.5247   1.4307   1.5382   H         1 1      0.0000
    25 C7      -3.1113  -0.0778  -0.0387   C.ar      1 1      0.0000
    26 H8      -3.0297  -1.8889  -1.1915   H         1 1      0.0000
    27 H6      -2.9787   1.6961   1.1672   H         1 1      0.0000
    28 NO      -4.5604   0.0856  -0.2539   N.pl3     1 1      0.0000
    29 ON2     -5.1355   1.1030   0.2817   O.2       1 1      0.0000
    30 ON1     -5.1635  -0.8009  -0.9637   O.2       1 1      0.0000
    31 C15      3.8822  -1.8345   0.6364   C.3       1 1      0.0000
    32 H15A     3.2829  -2.1469  -0.2272   H         1 1      0.0000
    33 H15C     4.8390  -2.3606   0.5673   H         1 1      0.0000
    34 H15B     3.4043  -2.1727   1.5642   H         1 1      0.0000
@<TRIPOS>BOND
     1     1     2    1
     2     1    15    1
     3     1    16    1
     4     1    18    1
     5     2     3    1
     6     2     4    1
     7     2    14    1
     8     4     5    1
     9     4     8    2
    10     5     6    1
    11     5     7    1
    12     5    31    1
    13     8     9    1
    14     8    10    1
    15    10    11    1
    16    10    12    1
    17    10    13    1
    18    15    17    1
    19    18    19   ar
    20    18    20   ar
    21    19    21   ar
    22    19    22    1
    23    20    23   ar
    24    20    24    1
    25    21    25   ar
    26    21    26    1
    27    23    25   ar
    28    23    27    1
    29    25    28    1
    30    28    29   un
    31    28    30   un
    32    31    32    1
    33    31    33    1
    34    31    34    1
@<TRIPOS>SUBSTRUCTURE
     1 1           1 GROUP             0 ****  ****    0  
@<TRIPOS>MOLECULE
Molecule Name_00059
    34    34     1     0     0
SMALL
NO_CHARGES
****
Generated from the CSD

@<TRIPOS>ATOM
     1 C11      1.1831   1.4908   0.7140   C.3       1 1      0.0000
     2 C12      2.2835   0.9595  -0.2567   C.3       1 1      0.0000
     3 H12A     3.2044   1.5164  -0.0701   H         1 1      0.0000
     4 C13      2.4806  -0.5204  -0.0773   C.2       1 1      0.0000
     5 C14      2.0463  -1.4431  -1.1862   C.3       1 1      0.0000
     6 H14B     1.0031  -1.1890  -1.4288   H         1 1      0.0000
     7 H14A     2.0116  -2.4586  -0.7640   H         1 1      0.0000
     8 N        3.0151  -1.0117   1.0029   N.pl3     1 1      0.0000
     9 HN       3.1140  -2.0298   1.0559   H         1 1      0.0000
    10 C        3.4650  -0.2545   2.2144   C.3       1 1      0.0000
    11 HC       4.1860  -0.8788   2.7440   H         1 1      0.0000
    12 HB       3.9475   0.6795   1.9100   H         1 1      0.0000
    13 HA       2.5935  -0.0640   2.8420   H         1 1      0.0000
    14 H12B     1.9594   1.1596  -1.2836   H         1 1      0.0000
    15 O1       1.2170   2.9559   0.4962   O.3       1 1      0.0000
    16 H11      1.4645   1.2671   1.7505   H         1 1      0.0000
    17 OH1      0.5214   3.4140   1.0387   H         1 1      0.0000
    18 C10     -0.1638   0.8712   0.4005   C.ar      1 1      0.0000
    19 C9      -1.1648   1.6464  -0.2032   C.ar      1 1      0.0000
    20 C5      -0.4186  -0.4690   0.7337   C.ar      1 1      0.0000
    21 C8      -2.4221   1.0958  -0.4575   C.ar      1 1      0.0000
    22 H9      -0.9690   2.6780  -0.4820   H         1 1      0.0000
    23 C6      -1.6672  -1.0312   0.4749   C.ar      1 1      0.0000
    24 H5       0.3623  -1.0793   1.1756   H         1 1      0.0000
    25 C7      -2.6515  -0.2344  -0.1111   C.ar      1 1      0.0000
    26 H8      -3.2097   1.6754  -0.9219   H         1 1      0.0000
    27 H6      -1.8854  -2.0631   0.7179   H         1 1      0.0000
    28 NO      -3.9768  -0.8220  -0.3781   N.pl3     1 1      0.0000
    29 ON2     -4.1653  -2.0506  -0.0501   O.2       1 1      0.0000
    30 ON1     -4.8653  -0.0704  -0.9251   O.2       1 1      0.0000
    31 C15      2.9070  -1.4311  -2.4622   C.3       1 1      0.0000
    32 H15A     3.9422  -1.7320  -2.2608   H         1 1      0.0000
    33 H15C     2.4991  -2.1520  -3.1771   H         1 1      0.0000
    34 H15B     2.8927  -0.4533  -2.9595   H         1 1      0.0000
@<TRIPOS>BOND
     1     1     2    1
     2     1    15    1
     3     1    16    1
     4     1    18    1
     5     2     3    1
     6     2     4    1
     7     2    14    1
     8     4     5    1
     9     4     8    2
    10     5     6    1
    11     5     7    1
    12     5    31    1
    13     8     9    1
    14     8    10    1
    15    10    11    1
    16    10    12    1
    17    10    13    1
    18    15    17    1
    19    18    19   ar
    20    18    20   ar
    21    19    21   ar
    22    19    22    1
    23    20    23   ar
    24    20    24    1
    25    21    25   ar
    26    21    26    1
    27    23    25   ar
    28    23    27    1
    29    25    28    1
    30    28    29   un
    31    28    30   un
    32    31    32    1
    33    31    33    1
    34    31    34    1
@<TRIPOS>SUBSTRUCTURE
     1 1           1 GROUP             0 ****  ****    0  
@<TRIPOS>MOLECULE
Molecule Name_00060
    34    34     1     0     0
SMALL
NO_CHARGES
****
Generated from the CSD

@<TRIPOS>ATOM
     1 C11      1.1992  -0.6147   1.6864   C.3       1 1      0.0000
     2 C12      2.2290   0.4435   1.1816   C.3       1 1      0.0000
     3 H12A     3.1186   0.3858   1.8127   H         1 1      0.0000
     4 C13      2.5578   0.2155  -0.2679   C.2       1 1      0.0000
     5 C14      2.8470  -1.1900  -0.7269   C.3       1 1      0.0000
     6 H14B     1.9751  -1.8049  -0.4561   H         1 1      0.0000
     7 H14A     3.6759  -1.5658  -0.1084   H         1 1      0.0000
     8 N        2.5937   1.1967  -1.1222   N.pl3     1 1      0.0000
     9 HN       2.8289   0.9657  -2.0919   H         1 1      0.0000
    10 C        2.3749   2.6510  -0.8387   C.3       1 1      0.0000
    11 HC       2.9797   3.2192  -1.5468   H         1 1      0.0000
    12 HB       1.3190   2.9016  -0.9795   H         1 1      0.0000
    13 HA       2.6970   2.8525   0.1838   H         1 1      0.0000
    14 H12B     1.7841   1.4374   1.2998   H         1 1      0.0000
    15 O1       1.1703  -0.3887   3.1504   O.3       1 1      0.0000
    16 H11      1.5739  -1.6245   1.4782   H         1 1      0.0000
    17 OH1      0.5097  -0.9864   3.5913   H         1 1      0.0000
    18 C10     -0.1501  -0.4191   1.0250   C.ar      1 1      0.0000
    19 C9      -1.1907  -1.3238   1.2819   C.ar      1 1      0.0000
    20 C5      -0.3530   0.6515   0.1391   C.ar      1 1      0.0000
    21 C8      -2.4239  -1.1753   0.6449   C.ar      1 1      0.0000
    22 H9      -1.0479  -2.1429   1.9811   H         1 1      0.0000
    23 C6      -1.5835   0.8145  -0.4943   C.ar      1 1      0.0000
    24 H5       0.4411   1.3689  -0.0407   H         1 1      0.0000
    25 C7      -2.5974  -0.1085  -0.2348   C.ar      1 1      0.0000
    26 H8      -3.2408  -1.8616   0.8275   H         1 1      0.0000
    27 H6      -1.7653   1.6346  -1.1769   H         1 1      0.0000
    28 NO      -3.8977   0.0545  -0.9098   N.pl3     1 1      0.0000
    29 ON2     -4.0345   1.0457  -1.7169   O.2       1 1      0.0000
    30 ON1     -4.8187  -0.8043  -0.6495   O.2       1 1      0.0000
    31 C15      3.1798  -1.3672  -2.2192   C.3       1 1      0.0000
    32 H15A     4.0773  -0.8069  -2.5080   H         1 1      0.0000
    33 H15C     3.3858  -2.4231  -2.4182   H         1 1      0.0000
    34 H15B     2.3393  -1.0842  -2.8650   H         1 1      0.0000
@<TRIPOS>BOND
     1     1     2    1
     2     1    15    1
     3     1    16    1
     4     1    18    1
     5     2     3    1
     6     2     4    1
     7     2    14    1
     8     4     5    1
     9     4     8    2
    10     5     6    1
    11     5     7    1
    12     5    31    1
    13     8     9    1
    14     8    10    1
    15    10    11    1
    16    10    12    1
    17    10    13    1
    18    15    17    1
    19    18    19   ar
    20    18    20   ar
    21    19    21   ar
    22    19    22    1
    23    20    23   ar
    24    20    24    1
    25    21    25   ar
    26    21    26    1
    27    23    25   ar
    28    23    27    1
    29    25    28    1
    30    28    29   un
    31    28    30   un
    32    31    32    1
    33    31    33    1
    34    31    34    1
@<TRIPOS>SUBSTRUCTURE
     1 1           1 GROUP             0 ****  ****    0  
@<TRIPOS>MOLECULE
Molecule Name_00061
    34    34     1     0     0
SMALL
NO_CHARGES
****
Generated from the CSD

@<TRIPOS>ATOM
     1 C11      1.0082   0.0491   0.8900   C.3       1 1      0.0000
     2 C12      1.8447   0.4588  -0.3620   C.3       1 1      0.0000
     3 H12A     1.7792   1.5427  -0.4794   H         1 1      0.0000
     4 C13      3.2693  -0.0020  -0.2231   C.2       1 1      0.0000
     5 C14      3.6007  -1.4291  -0.5744   C.3       1 1      0.0000
     6 H14B     2.9001  -2.0705  -0.0180   H         1 1      0.0000
     7 H14A     4.5940  -1.6416  -0.1515   H         1 1      0.0000
     8 N        4.2091   0.7997   0.1869   N.pl3     1 1      0.0000
     9 HN       5.1552   0.4142   0.2605   H         1 1      0.0000
    10 C        4.0572   2.2269   0.6150   C.3       1 1      0.0000
    11 HC       5.0557   2.6197   0.8117   H         1 1      0.0000
    12 HB       3.5899   2.8070  -0.1867   H         1 1      0.0000
    13 HA       3.4540   2.2492   1.5236   H         1 1      0.0000
    14 H12B     1.3960  -0.0129  -1.2428   H         1 1      0.0000
    15 O1       1.3271   1.1102   1.8735   O.3       1 1      0.0000
    16 H11      1.3583  -0.9194   1.2683   H         1 1      0.0000
    17 OH1      0.8159   0.9818   2.7162   H         1 1      0.0000
    18 C10     -0.4676  -0.0313   0.5554   C.ar      1 1      0.0000
    19 C9      -1.1955  -1.1847   0.8831   C.ar      1 1      0.0000
    20 C5      -1.1013   1.0360  -0.1016   C.ar      1 1      0.0000
    21 C8      -2.5452  -1.2842   0.5413   C.ar      1 1      0.0000
    22 H9      -0.7174  -2.0063   1.4089   H         1 1      0.0000
    23 C6      -2.4508   0.9507  -0.4383   C.ar      1 1      0.0000
    24 H5      -0.5479   1.9405  -0.3320   H         1 1      0.0000
    25 C7      -3.1487  -0.2140  -0.1163   C.ar      1 1      0.0000
    26 H8      -3.1264  -2.1647   0.7836   H         1 1      0.0000
    27 H6      -2.9620   1.7621  -0.9401   H         1 1      0.0000
    28 NO      -4.5741  -0.3125  -0.4789   N.pl3     1 1      0.0000
    29 ON2     -4.9722   0.3206  -1.5246   O.2       1 1      0.0000
    30 ON1     -5.3351  -1.0249   0.2740   O.2       1 1      0.0000
    31 C15      3.5765  -1.7881  -2.0709   C.3       1 1      0.0000
    32 H15A     4.3036  -1.2010  -2.6448   H         1 1      0.0000
    33 H15C     3.8502  -2.8405  -2.1921   H         1 1      0.0000
    34 H15B     2.5762  -1.6718  -2.5062   H         1 1      0.0000
@<TRIPOS>BOND
     1     1     2    1
     2     1    15    1
     3     1    16    1
     4     1    18    1
     5     2     3    1
     6     2     4    1
     7     2    14    1
     8     4     5    1
     9     4     8    2
    10     5     6    1
    11     5     7    1
    12     5    31    1
    13     8     9    1
    14     8    10    1
    15    10    11    1
    16    10    12    1
    17    10    13    1
    18    15    17    1
    19    18    19   ar
    20    18    20   ar
    21    19    21   ar
    22    19    22    1
    23    20    23   ar
    24    20    24    1
    25    21    25   ar
    26    21    26    1
    27    23    25   ar
    28    23    27    1
    29    25    28    1
    30    28    29   un
    31    28    30   un
    32    31    32    1
    33    31    33    1
    34    31    34    1
@<TRIPOS>SUBSTRUCTURE
     1 1           1 GROUP             0 ****  ****    0  
@<TRIPOS>MOLECULE
Molecule Name_00062
    34    34     1     0     0
SMALL
NO_CHARGES
****
Generated from the CSD

@<TRIPOS>ATOM
     1 C11      1.0878   0.0244   0.6610   C.3       1 1      0.0000
     2 C12      1.8143   0.6387  -0.5759   C.3       1 1      0.0000
     3 H12A     1.7164   1.7255  -0.5273   H         1 1      0.0000
     4 C13      3.2550   0.2097  -0.6130   C.2       1 1      0.0000
     5 C14      3.5915  -1.1275  -1.2200   C.3       1 1      0.0000
     6 H14B     4.6731  -1.1274  -1.4243   H         1 1      0.0000
     7 H14A     3.1053  -1.1640  -2.2064   H         1 1      0.0000
     8 N        4.2041   0.9638  -0.1392   N.pl3     1 1      0.0000
     9 HN       5.1613   0.6037  -0.1956   H         1 1      0.0000
    10 C        4.0523   2.2946   0.5312   C.3       1 1      0.0000
    11 HC       5.0533   2.6898   0.7091   H         1 1      0.0000
    12 HB       3.5024   2.9786  -0.1226   H         1 1      0.0000
    13 HA       3.5294   2.1437   1.4765   H         1 1      0.0000
    14 H12B     1.3080   0.2852  -1.4805   H         1 1      0.0000
    15 O1       1.4591   0.9423   1.7631   O.3       1 1      0.0000
    16 H11      1.4881  -0.9762   0.8662   H         1 1      0.0000
    17 OH1      1.0185   0.6764   2.6136   H         1 1      0.0000
    18 C10     -0.4074  -0.0562   0.4289   C.ar      1 1      0.0000
    19 C9      -1.0814  -1.2686   0.6370   C.ar      1 1      0.0000
    20 C5      -1.1144   1.0729  -0.0156   C.ar      1 1      0.0000
    21 C8      -2.4512  -1.3630   0.3855   C.ar      1 1      0.0000
    22 H9      -0.5453  -2.1412   0.9996   H         1 1      0.0000
    23 C6      -2.4839   0.9920  -0.2599   C.ar      1 1      0.0000
    24 H5      -0.6012   2.0194  -0.1512   H         1 1      0.0000
    25 C7      -3.1282  -0.2298  -0.0613   C.ar      1 1      0.0000
    26 H8      -2.9917  -2.2883   0.5385   H         1 1      0.0000
    27 H6      -3.0509   1.8498  -0.5978   H         1 1      0.0000
    28 NO      -4.5751  -0.3226  -0.3275   N.pl3     1 1      0.0000
    29 ON2     -5.0680   0.4412  -1.2366   O.2       1 1      0.0000
    30 ON1     -5.2586  -1.1616   0.3671   O.2       1 1      0.0000
    31 C15      3.2062  -2.3689  -0.3956   C.3       1 1      0.0000
    32 H15A     2.1196  -2.5102  -0.3514   H         1 1      0.0000
    33 H15C     3.6242  -3.2605  -0.8726   H         1 1      0.0000
    34 H15B     3.6195  -2.3334   0.6200   H         1 1      0.0000
@<TRIPOS>BOND
     1     1     2    1
     2     1    15    1
     3     1    16    1
     4     1    18    1
     5     2     3    1
     6     2     4    1
     7     2    14    1
     8     4     5    1
     9     4     8    2
    10     5     6    1
    11     5     7    1
    12     5    31    1
    13     8     9    1
    14     8    10    1
    15    10    11    1
    16    10    12    1
    17    10    13    1
    18    15    17    1
    19    18    19   ar
    20    18    20   ar
    21    19    21   ar
    22    19    22    1
    23    20    23   ar
    24    20    24    1
    25    21    25   ar
    26    21    26    1
    27    23    25   ar
    28    23    27    1
    29    25    28    1
    30    28    29   un
    31    28    30   un
    32    31    32    1
    33    31    33    1
    34    31    34    1
@<TRIPOS>SUBSTRUCTURE
     1 1           1 GROUP             0 ****  ****    0  
@<TRIPOS>MOLECULE
Molecule Name_00063
    34    34     1     0     0
SMALL
NO_CHARGES
****
Generated from the CSD

@<TRIPOS>ATOM
     1 C11      1.0059   0.1813   0.8002   C.3       1 1      0.0000
     2 C12      1.8328  -0.0010  -0.5105   C.3       1 1      0.0000
     3 H12A     1.6036   0.8310  -1.1800   H         1 1      0.0000
     4 C13      3.3028  -0.0817  -0.2044   C.2       1 1      0.0000
     5 C14      3.8733  -1.4039   0.2385   C.3       1 1      0.0000
     6 H14B     3.2540  -1.7593   1.0763   H         1 1      0.0000
     7 H14A     4.8638  -1.1977   0.6712   H         1 1      0.0000
     8 N        4.0813   0.9553  -0.3163   N.pl3     1 1      0.0000
     9 HN       5.0710   0.8256  -0.0869   H         1 1      0.0000
    10 C        3.6837   2.3472  -0.7011   C.3       1 1      0.0000
    11 HC       4.5637   2.8370  -1.1203   H         1 1      0.0000
    12 HB       2.8929   2.3115  -1.4569   H         1 1      0.0000
    13 HA       3.3501   2.8683   0.1971   H         1 1      0.0000
    14 H12B     1.5116  -0.9313  -0.9912   H         1 1      0.0000
    15 O1       1.3998   1.5317   1.2650   O.3       1 1      0.0000
    16 H11      1.3159  -0.5667   1.5405   H         1 1      0.0000
    17 OH1      0.9023   1.7860   2.0872   H         1 1      0.0000
    18 C10     -0.4793   0.0527   0.5285   C.ar      1 1      0.0000
    19 C9      -1.0166  -1.1904   0.1630   C.ar      1 1      0.0000
    20 C5      -1.3134   1.1789   0.6196   C.ar      1 1      0.0000
    21 C8      -2.3764  -1.3091  -0.1297   C.ar      1 1      0.0000
    22 H9      -0.3817  -2.0702   0.1096   H         1 1      0.0000
    23 C6      -2.6740   1.0689   0.3392   C.ar      1 1      0.0000
    24 H5      -0.9059   2.1359   0.9287   H         1 1      0.0000
    25 C7      -3.1811  -0.1751  -0.0384   C.ar      1 1      0.0000
    26 H8      -2.8126  -2.2580  -0.4144   H         1 1      0.0000
    27 H6      -3.3374   1.9214   0.4076   H         1 1      0.0000
    28 NO      -4.6180  -0.2942  -0.3451   N.pl3     1 1      0.0000
    29 ON2     -4.9493  -0.6896  -1.5227   O.2       1 1      0.0000
    30 ON1     -5.4549   0.0063   0.5837   O.2       1 1      0.0000
    31 C15      3.9857  -2.4959  -0.8403   C.3       1 1      0.0000
    32 H15A     4.6406  -2.1907  -1.6653   H         1 1      0.0000
    33 H15C     4.4280  -3.3935  -0.3978   H         1 1      0.0000
    34 H15B     3.0042  -2.7902  -1.2323   H         1 1      0.0000
@<TRIPOS>BOND
     1     1     2    1
     2     1    15    1
     3     1    16    1
     4     1    18    1
     5     2     3    1
     6     2     4    1
     7     2    14    1
     8     4     5    1
     9     4     8    2
    10     5     6    1
    11     5     7    1
    12     5    31    1
    13     8     9    1
    14     8    10    1
    15    10    11    1
    16    10    12    1
    17    10    13    1
    18    15    17    1
    19    18    19   ar
    20    18    20   ar
    21    19    21   ar
    22    19    22    1
    23    20    23   ar
    24    20    24    1
    25    21    25   ar
    26    21    26    1
    27    23    25   ar
    28    23    27    1
    29    25    28    1
    30    28    29   un
    31    28    30   un
    32    31    32    1
    33    31    33    1
    34    31    34    1
@<TRIPOS>SUBSTRUCTURE
     1 1           1 GROUP             0 ****  ****    0  
@<TRIPOS>MOLECULE
Molecule Name_00064
    34    34     1     0     0
SMALL
NO_CHARGES
****
Generated from the CSD

@<TRIPOS>ATOM
     1 C11      1.0827   0.0388   0.5740   C.3       1 1      0.0000
     2 C12      1.8044   0.0492  -0.8096   C.3       1 1      0.0000
     3 H12A     1.5356   0.9707  -1.3306   H         1 1      0.0000
     4 C13      3.2923  -0.0782  -0.6335   C.2       1 1      0.0000
     5 C14      3.8791  -1.4533  -0.4479   C.3       1 1      0.0000
     6 H14B     4.9611  -1.3714  -0.6334   H         1 1      0.0000
     7 H14A     3.4876  -2.0822  -1.2615   H         1 1      0.0000
     8 N        4.0722   0.9637  -0.6414   N.pl3     1 1      0.0000
     9 HN       5.0749   0.7999  -0.5117   H         1 1      0.0000
    10 C        3.6630   2.3986  -0.7721   C.3       1 1      0.0000
    11 HC       4.5643   2.9817  -0.9664   H         1 1      0.0000
    12 HB       2.9693   2.5115  -1.6110   H         1 1      0.0000
    13 HA       3.2035   2.7102   0.1667   H         1 1      0.0000
    14 H12B     1.4351  -0.8001  -1.3945   H         1 1      0.0000
    15 O1       1.5321   1.3039   1.2007   O.3       1 1      0.0000
    16 H11      1.4364  -0.8119   1.1696   H         1 1      0.0000
    17 OH1      1.1028   1.4357   2.0874   H         1 1      0.0000
    18 C10     -0.4207  -0.0417   0.4025   C.ar      1 1      0.0000
    19 C9      -1.0038  -1.2146  -0.0994   C.ar      1 1      0.0000
    20 C5      -1.2276   1.0621   0.7230   C.ar      1 1      0.0000
    21 C8      -2.3836  -1.2829  -0.2998   C.ar      1 1      0.0000
    22 H9      -0.3887  -2.0796  -0.3309   H         1 1      0.0000
    23 C6      -2.6072   1.0007   0.5360   C.ar      1 1      0.0000
    24 H5      -0.7828   1.9611   1.1372   H         1 1      0.0000
    25 C7      -3.1611  -0.1714   0.0198   C.ar      1 1      0.0000
    26 H8      -2.8551  -2.1773  -0.6865   H         1 1      0.0000
    27 H6      -3.2500   1.8365   0.7806   H         1 1      0.0000
    28 NO      -4.6189  -0.2376  -0.1886   N.pl3     1 1      0.0000
    29 ON2     -5.0451  -0.4528  -1.3822   O.2       1 1      0.0000
    30 ON1     -5.3778  -0.0745   0.8366   O.2       1 1      0.0000
    31 C15      3.6223  -2.1286   0.9112   C.3       1 1      0.0000
    32 H15A     2.6496  -2.6342   0.9400   H         1 1      0.0000
    33 H15C     4.3847  -2.8947   1.0812   H         1 1      0.0000
    34 H15B     3.6988  -1.4191   1.7445   H         1 1      0.0000
@<TRIPOS>BOND
     1     1     2    1
     2     1    15    1
     3     1    16    1
     4     1    18    1
     5     2     3    1
     6     2     4    1
     7     2    14    1
     8     4     5    1
     9     4     8    2
    10     5     6    1
    11     5     7    1
    12     5    31    1
    13     8     9    1
    14     8    10    1
    15    10    11    1
    16    10    12    1
    17    10    13    1
    18    15    17    1
    19    18    19   ar
    20    18    20   ar
    21    19    21   ar
    22    19    22    1
    23    20    23   ar
    24    20    24    1
    25    21    25   ar
    26    21    26    1
    27    23    25   ar
    28    23    27    1
    29    25    28    1
    30    28    29   un
    31    28    30   un
    32    31    32    1
    33    31    33    1
    34    31    34    1
@<TRIPOS>SUBSTRUCTURE
     1 1           1 GROUP             0 ****  ****    0  
@<TRIPOS>MOLECULE
Molecule Name_00065
    34    34     1     0     0
SMALL
NO_CHARGES
****
Generated from the CSD

@<TRIPOS>ATOM
     1 C11      1.0054  -0.5009  -0.6928   C.3       1 1      0.0000
     2 C12      1.8421   0.2261   0.4057   C.3       1 1      0.0000
     3 H12A     1.7012  -0.3024   1.3511   H         1 1      0.0000
     4 C13      3.2924   0.2901   0.0134   C.2       1 1      0.0000
     5 C14      4.1759  -0.8878   0.3323   C.3       1 1      0.0000
     6 H14B     5.0970  -0.7711  -0.2590   H         1 1      0.0000
     7 H14A     3.6777  -1.7818  -0.0719   H         1 1      0.0000
     8 N        3.7907   1.3294  -0.5910   N.pl3     1 1      0.0000
     9 HN       4.7878   1.3031  -0.8238   H         1 1      0.0000
    10 C        3.0765   2.5967  -0.9480   C.3       1 1      0.0000
    11 HC       3.8221   3.3018  -1.3182   H         1 1      0.0000
    12 HB       2.3412   2.3992  -1.7342   H         1 1      0.0000
    13 HA       2.5992   2.9856  -0.0477   H         1 1      0.0000
    14 H12B     1.4518   1.2435   0.5158   H         1 1      0.0000
    15 O1       1.4596  -1.9073  -0.5901   O.3       1 1      0.0000
    16 H11      1.2661  -0.1021  -1.6810   H         1 1      0.0000
    17 OH1      0.9630  -2.4905  -1.2237   H         1 1      0.0000
    18 C10     -0.4800  -0.3332  -0.4448   C.ar      1 1      0.0000
    19 C9      -1.0735   0.9293  -0.5903   C.ar      1 1      0.0000
    20 C5      -1.2577  -1.4332  -0.0479   C.ar      1 1      0.0000
    21 C8      -2.4329   1.1014  -0.3234   C.ar      1 1      0.0000
    22 H9      -0.4829   1.7809  -0.9161   H         1 1      0.0000
    23 C6      -2.6176  -1.2741   0.2113   C.ar      1 1      0.0000
    24 H5      -0.8074  -2.4167   0.0390   H         1 1      0.0000
    25 C7      -3.1809  -0.0046   0.0754   C.ar      1 1      0.0000
    26 H8      -2.9119   2.0665  -0.4285   H         1 1      0.0000
    27 H6      -3.2383  -2.1078   0.5133   H         1 1      0.0000
    28 NO      -4.6171   0.1703   0.3576   N.pl3     1 1      0.0000
    29 ON2     -4.9497   0.9924   1.2882   O.2       1 1      0.0000
    30 ON1     -5.4519  -0.5115  -0.3435   O.2       1 1      0.0000
    31 C15      4.5208  -1.1018   1.8170   C.3       1 1      0.0000
    32 H15A     3.6244  -1.2739   2.4250   H         1 1      0.0000
    33 H15C     5.1481  -1.9928   1.9151   H         1 1      0.0000
    34 H15B     5.0972  -0.2650   2.2307   H         1 1      0.0000
@<TRIPOS>BOND
     1     1     2    1
     2     1    15    1
     3     1    16    1
     4     1    18    1
     5     2     3    1
     6     2     4    1
     7     2    14    1
     8     4     5    1
     9     4     8    2
    10     5     6    1
    11     5     7    1
    12     5    31    1
    13     8     9    1
    14     8    10    1
    15    10    11    1
    16    10    12    1
    17    10    13    1
    18    15    17    1
    19    18    19   ar
    20    18    20   ar
    21    19    21   ar
    22    19    22    1
    23    20    23   ar
    24    20    24    1
    25    21    25   ar
    26    21    26    1
    27    23    25   ar
    28    23    27    1
    29    25    28    1
    30    28    29   un
    31    28    30   un
    32    31    32    1
    33    31    33    1
    34    31    34    1
@<TRIPOS>SUBSTRUCTURE
     1 1           1 GROUP             0 ****  ****    0  
@<TRIPOS>MOLECULE
Molecule Name_00066
    34    34     1     0     0
SMALL
NO_CHARGES
****
Generated from the CSD

@<TRIPOS>ATOM
     1 C11      1.1661   0.8348   1.5994   C.3       1 1      0.0000
     2 C12      2.1987   1.2545   0.5073   C.3       1 1      0.0000
     3 H12A     3.1127   1.5833   1.0067   H         1 1      0.0000
     4 C13      2.4599   0.1177  -0.4417   C.2       1 1      0.0000
     5 C14      1.9684   0.2386  -1.8607   C.3       1 1      0.0000
     6 H14B     2.4000   1.1624  -2.2753   H         1 1      0.0000
     7 H14A     0.8837   0.4168  -1.8109   H         1 1      0.0000
     8 N        3.0968  -0.9530  -0.0653   N.pl3     1 1      0.0000
     9 HN       3.2342  -1.6875  -0.7658   H         1 1      0.0000
    10 C        3.6178  -1.2606   1.3049   C.3       1 1      0.0000
    11 HC       4.3421  -2.0705   1.2076   H         1 1      0.0000
    12 HB       4.1135  -0.3777   1.7201   H         1 1      0.0000
    13 HA       2.7788  -1.5736   1.9276   H         1 1      0.0000
    14 H12B     1.7835   2.1020  -0.0487   H         1 1      0.0000
    15 O1       1.0879   2.0309   2.4701   O.3       1 1      0.0000
    16 H11      1.5593  -0.0128   2.1744   H         1 1      0.0000
    17 OH1      0.4207   1.9019   3.1956   H         1 1      0.0000
    18 C10     -0.1636   0.4619   0.9757   C.ar      1 1      0.0000
    19 C9      -0.7677  -0.7617   1.3003   C.ar      1 1      0.0000
    20 C5      -0.7798   1.3276   0.0575   C.ar      1 1      0.0000
    21 C8      -1.9719  -1.1319   0.6989   C.ar      1 1      0.0000
    22 H9      -0.3074  -1.4279   2.0245   H         1 1      0.0000
    23 C6      -1.9870   0.9719  -0.5409   C.ar      1 1      0.0000
    24 H5      -0.3290   2.2869  -0.1749   H         1 1      0.0000
    25 C7      -2.5593  -0.2581  -0.2140   C.ar      1 1      0.0000
    26 H8      -2.4557  -2.0714   0.9337   H         1 1      0.0000
    27 H6      -2.4833   1.6247  -1.2473   H         1 1      0.0000
    28 NO      -3.8315  -0.6427  -0.8516   N.pl3     1 1      0.0000
    29 ON2     -4.0668  -0.2006  -2.0356   O.2       1 1      0.0000
    30 ON1     -4.6312  -1.3968  -0.1842   O.2       1 1      0.0000
    31 C15      2.2655  -0.9512  -2.7909   C.3       1 1      0.0000
    32 H15A     1.8027  -1.8780  -2.4310   H         1 1      0.0000
    33 H15C     1.8438  -0.7478  -3.7798   H         1 1      0.0000
    34 H15B     3.3425  -1.1030  -2.9342   H         1 1      0.0000
@<TRIPOS>BOND
     1     1     2    1
     2     1    15    1
     3     1    16    1
     4     1    18    1
     5     2     3    1
     6     2     4    1
     7     2    14    1
     8     4     5    1
     9     4     8    2
    10     5     6    1
    11     5     7    1
    12     5    31    1
    13     8     9    1
    14     8    10    1
    15    10    11    1
    16    10    12    1
    17    10    13    1
    18    15    17    1
    19    18    19   ar
    20    18    20   ar
    21    19    21   ar
    22    19    22    1
    23    20    23   ar
    24    20    24    1
    25    21    25   ar
    26    21    26    1
    27    23    25   ar
    28    23    27    1
    29    25    28    1
    30    28    29   un
    31    28    30   un
    32    31    32    1
    33    31    33    1
    34    31    34    1
@<TRIPOS>SUBSTRUCTURE
     1 1           1 GROUP             0 ****  ****    0  
@<TRIPOS>MOLECULE
Molecule Name_00067
    34    34     1     0     0
SMALL
NO_CHARGES
****
Generated from the CSD

@<TRIPOS>ATOM
     1 C11      1.1071  -0.7275   0.0408   C.3       1 1      0.0000
     2 C12      1.8706   0.4623   0.7017   C.3       1 1      0.0000
     3 H12A     1.8397   0.3309   1.7855   H         1 1      0.0000
     4 C13      3.2823   0.5379   0.1892   C.2       1 1      0.0000
     5 C14      4.1370  -0.7012   0.2516   C.3       1 1      0.0000
     6 H14B     4.0196  -1.1250   1.2608   H         1 1      0.0000
     7 H14A     5.1851  -0.3719   0.1905   H         1 1      0.0000
     8 N        3.7715   1.6387  -0.3034   N.pl3     1 1      0.0000
     9 HN       4.7422   1.6158  -0.6295   H         1 1      0.0000
    10 C        3.0859   2.9664  -0.4064   C.3       1 1      0.0000
    11 HC       3.8268   3.6946  -0.7393   H         1 1      0.0000
    12 HB       2.2765   2.9099  -1.1408   H         1 1      0.0000
    13 HA       2.7072   3.2334   0.5810   H         1 1      0.0000
    14 H12B     1.3440   1.3890   0.4497   H         1 1      0.0000
    15 O1       1.4851  -1.8844   0.8857   O.3       1 1      0.0000
    16 H11      1.4764  -0.8826  -0.9805   H         1 1      0.0000
    17 OH1      1.0233  -2.7120   0.5857   H         1 1      0.0000
    18 C10     -0.3857  -0.4687   0.0155   C.ar      1 1      0.0000
    19 C9      -1.2412  -1.2402   0.8156   C.ar      1 1      0.0000
    20 C5      -0.9154   0.5251  -0.8236   C.ar      1 1      0.0000
    21 C8      -2.6214  -1.0368   0.7673   C.ar      1 1      0.0000
    22 H9      -0.8377  -1.9974   1.4820   H         1 1      0.0000
    23 C6      -2.2909   0.7430  -0.8717   C.ar      1 1      0.0000
    24 H5      -0.2541   1.1422  -1.4232   H         1 1      0.0000
    25 C7      -3.1222  -0.0490  -0.0785   C.ar      1 1      0.0000
    26 H8      -3.3006  -1.6207   1.3754   H         1 1      0.0000
    27 H6      -2.7219   1.5064  -1.5065   H         1 1      0.0000
    28 NO      -4.5786   0.1714  -0.1332   N.pl3     1 1      0.0000
    29 ON2     -5.0175   1.0880  -0.9206   O.2       1 1      0.0000
    30 ON1     -5.3237  -0.5657   0.6118   O.2       1 1      0.0000
    31 C15      3.8593  -1.7778  -0.8128   C.3       1 1      0.0000
    32 H15A     3.2656  -1.3853  -1.6471   H         1 1      0.0000
    33 H15C     4.8096  -2.1216  -1.2320   H         1 1      0.0000
    34 H15B     3.3665  -2.6606  -0.3868   H         1 1      0.0000
@<TRIPOS>BOND
     1     1     2    1
     2     1    15    1
     3     1    16    1
     4     1    18    1
     5     2     3    1
     6     2     4    1
     7     2    14    1
     8     4     5    1
     9     4     8    2
    10     5     6    1
    11     5     7    1
    12     5    31    1
    13     8     9    1
    14     8    10    1
    15    10    11    1
    16    10    12    1
    17    10    13    1
    18    15    17    1
    19    18    19   ar
    20    18    20   ar
    21    19    21   ar
    22    19    22    1
    23    20    23   ar
    24    20    24    1
    25    21    25   ar
    26    21    26    1
    27    23    25   ar
    28    23    27    1
    29    25    28    1
    30    28    29   un
    31    28    30   un
    32    31    32    1
    33    31    33    1
    34    31    34    1
@<TRIPOS>SUBSTRUCTURE
     1 1           1 GROUP             0 ****  ****    0  
@<TRIPOS>MOLECULE
Molecule Name_00068
    34    34     1     0     0
SMALL
NO_CHARGES
****
Generated from the CSD

@<TRIPOS>ATOM
     1 C11      1.0802  -0.6233   0.1361   C.3       1 1      0.0000
     2 C12      1.8019   0.4886  -0.6874   C.3       1 1      0.0000
     3 H12A     1.4037   1.4578  -0.3790   H         1 1      0.0000
     4 C13      3.2911   0.4106  -0.4944   C.2       1 1      0.0000
     5 C14      3.9849  -0.8967  -0.7762   C.3       1 1      0.0000
     6 H14B     5.0501  -0.6700  -0.9365   H         1 1      0.0000
     7 H14A     3.6110  -1.2562  -1.7466   H         1 1      0.0000
     8 N        3.9826   1.4388  -0.0965   N.pl3     1 1      0.0000
     9 HN       4.9924   1.3096   0.0164   H         1 1      0.0000
    10 C        3.4597   2.7947   0.2664   C.3       1 1      0.0000
    11 HC       4.2894   3.3666   0.6841   H         1 1      0.0000
    12 HB       3.0847   3.2995  -0.6293   H         1 1      0.0000
    13 HA       2.6715   2.6696   1.0099   H         1 1      0.0000
    14 H12B     1.5657   0.3380  -1.7463   H         1 1      0.0000
    15 O1       1.6171  -0.4350   1.5040   O.3       1 1      0.0000
    16 H11      1.3727  -1.6114  -0.2403   H         1 1      0.0000
    17 OH1      1.1975  -1.0701   2.1432   H         1 1      0.0000
    18 C10     -0.4250  -0.4670   0.0584   C.ar      1 1      0.0000
    19 C9      -0.9813   0.5438  -0.7392   C.ar      1 1      0.0000
    20 C5      -1.2618  -1.3165   0.8004   C.ar      1 1      0.0000
    21 C8      -2.3652   0.7216  -0.7840   C.ar      1 1      0.0000
    22 H9      -0.3418   1.1922  -1.3315   H         1 1      0.0000
    23 C6      -2.6450  -1.1538   0.7548   C.ar      1 1      0.0000
    24 H5      -0.8360  -2.1168   1.3968   H         1 1      0.0000
    25 C7      -3.1730  -0.1303  -0.0332   C.ar      1 1      0.0000
    26 H8      -2.8164   1.4953  -1.3920   H         1 1      0.0000
    27 H6      -3.3103  -1.7994   1.3136   H         1 1      0.0000
    28 NO      -4.6352   0.0516  -0.0772   N.pl3     1 1      0.0000
    29 ON2     -5.3602  -0.7459   0.6235   O.2       1 1      0.0000
    30 ON1     -5.0985   0.9968  -0.8156   O.2       1 1      0.0000
    31 C15      3.8299  -1.9966   0.2893   C.3       1 1      0.0000
    32 H15A     2.9982  -2.6739   0.0607   H         1 1      0.0000
    33 H15C     4.7390  -2.6050   0.3122   H         1 1      0.0000
    34 H15B     3.7057  -1.5798   1.2965   H         1 1      0.0000
@<TRIPOS>BOND
     1     1     2    1
     2     1    15    1
     3     1    16    1
     4     1    18    1
     5     2     3    1
     6     2     4    1
     7     2    14    1
     8     4     5    1
     9     4     8    2
    10     5     6    1
    11     5     7    1
    12     5    31    1
    13     8     9    1
    14     8    10    1
    15    10    11    1
    16    10    12    1
    17    10    13    1
    18    15    17    1
    19    18    19   ar
    20    18    20   ar
    21    19    21   ar
    22    19    22    1
    23    20    23   ar
    24    20    24    1
    25    21    25   ar
    26    21    26    1
    27    23    25   ar
    28    23    27    1
    29    25    28    1
    30    28    29   un
    31    28    30   un
    32    31    32    1
    33    31    33    1
    34    31    34    1
@<TRIPOS>SUBSTRUCTURE
     1 1           1 GROUP             0 ****  ****    0  
@<TRIPOS>MOLECULE
Molecule Name_00069
    34    34     1     0     0
SMALL
NO_CHARGES
****
Generated from the CSD

@<TRIPOS>ATOM
     1 C11      1.1144   1.0062   1.4685   C.3       1 1      0.0000
     2 C12      2.1280   1.3238   0.3254   C.3       1 1      0.0000
     3 H12A     3.0121   1.7872   0.7688   H         1 1      0.0000
     4 C13      2.4761   0.0759  -0.4380   C.2       1 1      0.0000
     5 C14      1.5798  -0.3459  -1.5731   C.3       1 1      0.0000
     6 H14B     1.4940   0.5143  -2.2547   H         1 1      0.0000
     7 H14A     0.5736  -0.4893  -1.1516   H         1 1      0.0000
     8 N        3.5250  -0.6353  -0.1417   N.pl3     1 1      0.0000
     9 HN       3.6963  -1.4747  -0.7030   H         1 1      0.0000
    10 C        4.4980  -0.3916   0.9708   C.3       1 1      0.0000
    11 HC       5.1698  -1.2500   1.0146   H         1 1      0.0000
    12 HB       5.0777   0.5135   0.7650   H         1 1      0.0000
    13 HA       3.9371  -0.2998   1.9018   H         1 1      0.0000
    14 H12B     1.6623   2.0457  -0.3541   H         1 1      0.0000
    15 O1       1.0284   2.2853   2.2111   O.3       1 1      0.0000
    16 H11      1.5268   0.2285   2.1233   H         1 1      0.0000
    17 OH1      0.3717   2.2235   2.9546   H         1 1      0.0000
    18 C10     -0.2168   0.5523   0.9043   C.ar      1 1      0.0000
    19 C9      -0.7886  -0.6497   1.3467   C.ar      1 1      0.0000
    20 C5      -0.8665   1.3202  -0.0757   C.ar      1 1      0.0000
    21 C8      -1.9939  -1.0963   0.8022   C.ar      1 1      0.0000
    22 H9      -0.3022  -1.2393   2.1186   H         1 1      0.0000
    23 C6      -2.0751   0.8883  -0.6184   C.ar      1 1      0.0000
    24 H5      -0.4406   2.2641  -0.4002   H         1 1      0.0000
    25 C7      -2.6150  -0.3192  -0.1737   C.ar      1 1      0.0000
    26 H8      -2.4532  -2.0209   1.1279   H         1 1      0.0000
    27 H6      -2.5969   1.4654  -1.3708   H         1 1      0.0000
    28 NO      -3.8885  -0.7848  -0.7518   N.pl3     1 1      0.0000
    29 ON2     -3.8938  -1.9197  -1.3557   O.2       1 1      0.0000
    30 ON1     -4.9186  -0.0267  -0.6187   O.2       1 1      0.0000
    31 C15      2.0091  -1.6015  -2.3531   C.3       1 1      0.0000
    32 H15A     2.0525  -2.4884  -1.7095   H         1 1      0.0000
    33 H15C     1.2705  -1.8096  -3.1329   H         1 1      0.0000
    34 H15B     2.9713  -1.4617  -2.8613   H         1 1      0.0000
@<TRIPOS>BOND
     1     1     2    1
     2     1    15    1
     3     1    16    1
     4     1    18    1
     5     2     3    1
     6     2     4    1
     7     2    14    1
     8     4     5    1
     9     4     8    2
    10     5     6    1
    11     5     7    1
    12     5    31    1
    13     8     9    1
    14     8    10    1
    15    10    11    1
    16    10    12    1
    17    10    13    1
    18    15    17    1
    19    18    19   ar
    20    18    20   ar
    21    19    21   ar
    22    19    22    1
    23    20    23   ar
    24    20    24    1
    25    21    25   ar
    26    21    26    1
    27    23    25   ar
    28    23    27    1
    29    25    28    1
    30    28    29   un
    31    28    30   un
    32    31    32    1
    33    31    33    1
    34    31    34    1
@<TRIPOS>SUBSTRUCTURE
     1 1           1 GROUP             0 ****  ****    0  
@<TRIPOS>MOLECULE
Molecule Name_00070
    34    34     1     0     0
SMALL
NO_CHARGES
****
Generated from the CSD

@<TRIPOS>ATOM
     1 C11      1.1534   1.4844   0.9310   C.3       1 1      0.0000
     2 C12      2.2205   1.2890  -0.1907   C.3       1 1      0.0000
     3 H12A     3.1142   1.8541   0.0829   H         1 1      0.0000
     4 C13      2.5226  -0.1708  -0.3881   C.2       1 1      0.0000
     5 C14      2.0773  -0.8303  -1.6674   C.3       1 1      0.0000
     6 H14B     2.5145  -0.2549  -2.4976   H         1 1      0.0000
     7 H14A     0.9901  -0.6796  -1.7449   H         1 1      0.0000
     8 N        3.1557  -0.8647   0.5127   N.pl3     1 1      0.0000
     9 HN       3.3223  -1.8548   0.3103   H         1 1      0.0000
    10 C        3.6336  -0.3887   1.8500   C.3       1 1      0.0000
    11 HC       4.3664  -1.1102   2.2138   H         1 1      0.0000
    12 HB       4.1091   0.5916   1.7466   H         1 1      0.0000
    13 HA       2.7768  -0.3444   2.5236   H         1 1      0.0000
    14 H12B     1.8190   1.7046  -1.1212   H         1 1      0.0000
    15 O1       1.0799   2.9569   1.0767   O.3       1 1      0.0000
    16 H11      1.5146   1.0405   1.8670   H         1 1      0.0000
    17 OH1      0.3930   3.2159   1.7469   H         1 1      0.0000
    18 C10     -0.1687   0.8561   0.5391   C.ar      1 1      0.0000
    19 C9      -1.2538   1.6739   0.1911   C.ar      1 1      0.0000
    20 C5      -0.3158  -0.5405   0.5461   C.ar      1 1      0.0000
    21 C8      -2.4873   1.1050  -0.1307   C.ar      1 1      0.0000
    22 H9      -1.1425   2.7542   0.1641   H         1 1      0.0000
    23 C6      -1.5401  -1.1188   0.2167   C.ar      1 1      0.0000
    24 H5       0.5292  -1.1769   0.7882   H         1 1      0.0000
    25 C7      -2.6089  -0.2830  -0.1098   C.ar      1 1      0.0000
    26 H8      -3.3384   1.7165  -0.4017   H         1 1      0.0000
    27 H6      -1.6761  -2.1926   0.2099   H         1 1      0.0000
    28 NO      -3.9085  -0.8899  -0.4498   N.pl3     1 1      0.0000
    29 ON2     -4.2091  -2.0118   0.1013   O.2       1 1      0.0000
    30 ON1     -4.6636  -0.2612  -1.2792   O.2       1 1      0.0000
    31 C15      2.4150  -2.3242  -1.8200   C.3       1 1      0.0000
    32 H15A     1.9485  -2.9319  -1.0352   H         1 1      0.0000
    33 H15C     2.0246  -2.6847  -2.7764   H         1 1      0.0000
    34 H15B     3.4975  -2.5022  -1.8358   H         1 1      0.0000
@<TRIPOS>BOND
     1     1     2    1
     2     1    15    1
     3     1    16    1
     4     1    18    1
     5     2     3    1
     6     2     4    1
     7     2    14    1
     8     4     5    1
     9     4     8    2
    10     5     6    1
    11     5     7    1
    12     5    31    1
    13     8     9    1
    14     8    10    1
    15    10    11    1
    16    10    12    1
    17    10    13    1
    18    15    17    1
    19    18    19   ar
    20    18    20   ar
    21    19    21   ar
    22    19    22    1
    23    20    23   ar
    24    20    24    1
    25    21    25   ar
    26    21    26    1
    27    23    25   ar
    28    23    27    1
    29    25    28    1
    30    28    29   un
    31    28    30   un
    32    31    32    1
    33    31    33    1
    34    31    34    1
@<TRIPOS>SUBSTRUCTURE
     1 1           1 GROUP             0 ****  ****    0  
@<TRIPOS>MOLECULE
Molecule Name_00071
    34    34     1     0     0
SMALL
NO_CHARGES
****
Generated from the CSD

@<TRIPOS>ATOM
     1 C11      1.0584  -0.6260   0.0977   C.3       1 1      0.0000
     2 C12      1.7980   0.7343   0.2915   C.3       1 1      0.0000
     3 H12A     1.5997   1.0921   1.3043   H         1 1      0.0000
     4 C13      3.2712   0.5796   0.0332   C.2       1 1      0.0000
     5 C14      4.0484  -0.4033   0.8696   C.3       1 1      0.0000
     6 H14B     3.4978  -0.5311   1.8142   H         1 1      0.0000
     7 H14A     4.9948   0.0862   1.1442   H         1 1      0.0000
     8 N        3.8784   1.2681  -0.8894   N.pl3     1 1      0.0000
     9 HN       4.8840   1.1122  -1.0054   H         1 1      0.0000
    10 C        3.2785   2.3109  -1.7817   C.3       1 1      0.0000
    11 HC       4.0935   2.7784  -2.3360   H         1 1      0.0000
    12 HB       2.5829   1.8421  -2.4846   H         1 1      0.0000
    13 HA       2.7730   3.0472  -1.1556   H         1 1      0.0000
    14 H12B     1.3797   1.4555  -0.4189   H         1 1      0.0000
    15 O1       1.5268  -1.4339   1.2479   O.3       1 1      0.0000
    16 H11      1.3860  -1.0954  -0.8382   H         1 1      0.0000
    17 OH1      1.0889  -2.3262   1.2599   H         1 1      0.0000
    18 C10     -0.4441  -0.4301   0.0777   C.ar      1 1      0.0000
    19 C9      -1.2895  -1.5354  -0.0987   C.ar      1 1      0.0000
    20 C5      -0.9897   0.8569   0.2122   C.ar      1 1      0.0000
    21 C8      -2.6728  -1.3589  -0.1603   C.ar      1 1      0.0000
    22 H9      -0.8762  -2.5365  -0.1837   H         1 1      0.0000
    23 C6      -2.3699   1.0427   0.1623   C.ar      1 1      0.0000
    24 H5      -0.3400   1.7104   0.3763   H         1 1      0.0000
    25 C7      -3.1886  -0.0708  -0.0308   C.ar      1 1      0.0000
    26 H8      -3.3442  -2.1971  -0.2963   H         1 1      0.0000
    27 H6      -2.8138   2.0240   0.2687   H         1 1      0.0000
    28 NO      -4.6486   0.1221  -0.0937   N.pl3     1 1      0.0000
    29 ON2     -5.1014   1.3191   0.0281   O.2       1 1      0.0000
    30 ON1     -5.3828  -0.9196  -0.2653   O.2       1 1      0.0000
    31 C15      4.3299  -1.7741   0.2287   C.3       1 1      0.0000
    32 H15A     4.9246  -1.6832  -0.6882   H         1 1      0.0000
    33 H15C     4.9116  -2.3840   0.9265   H         1 1      0.0000
    34 H15B     3.4066  -2.3292   0.0212   H         1 1      0.0000
@<TRIPOS>BOND
     1     1     2    1
     2     1    15    1
     3     1    16    1
     4     1    18    1
     5     2     3    1
     6     2     4    1
     7     2    14    1
     8     4     5    1
     9     4     8    2
    10     5     6    1
    11     5     7    1
    12     5    31    1
    13     8     9    1
    14     8    10    1
    15    10    11    1
    16    10    12    1
    17    10    13    1
    18    15    17    1
    19    18    19   ar
    20    18    20   ar
    21    19    21   ar
    22    19    22    1
    23    20    23   ar
    24    20    24    1
    25    21    25   ar
    26    21    26    1
    27    23    25   ar
    28    23    27    1
    29    25    28    1
    30    28    29   un
    31    28    30   un
    32    31    32    1
    33    31    33    1
    34    31    34    1
@<TRIPOS>SUBSTRUCTURE
     1 1           1 GROUP             0 ****  ****    0  
@<TRIPOS>MOLECULE
Molecule Name_00072
    34    34     1     0     0
SMALL
NO_CHARGES
****
Generated from the CSD

@<TRIPOS>ATOM
     1 C11      1.2203  -0.1655   1.8096   C.3       1 1      0.0000
     2 C12      2.3300   0.6092   1.0328   C.3       1 1      0.0000
     3 H12A     3.2302   0.6318   1.6508   H         1 1      0.0000
     4 C13      2.5872  -0.0297  -0.3040   C.2       1 1      0.0000
     5 C14      3.4830  -1.2397  -0.3619   C.3       1 1      0.0000
     6 H14B     3.0579  -1.9902   0.3220   H         1 1      0.0000
     7 H14A     4.4462  -0.9479   0.0828   H         1 1      0.0000
     8 N        2.0550   0.4357  -1.3966   N.pl3     1 1      0.0000
     9 HN       2.2787  -0.0492  -2.2706   H         1 1      0.0000
    10 C        1.1794   1.6433  -1.5329   C.3       1 1      0.0000
    11 HC       0.8686   1.7086  -2.5765   H         1 1      0.0000
    12 HB       0.2956   1.5344  -0.8966   H         1 1      0.0000
    13 HA       1.7625   2.5219  -1.2540   H         1 1      0.0000
    14 H12B     1.9871   1.6384   0.8820   H         1 1      0.0000
    15 O1       1.1963   0.5081   3.1290   O.3       1 1      0.0000
    16 H11      1.5206  -1.2129   1.9377   H         1 1      0.0000
    17 OH1      0.4895   0.1247   3.7133   H         1 1      0.0000
    18 C10     -0.1053  -0.0951   1.0788   C.ar      1 1      0.0000
    19 C9      -1.1376   0.7100   1.5822   C.ar      1 1      0.0000
    20 C5      -0.3092  -0.8511  -0.0871   C.ar      1 1      0.0000
    21 C8      -2.3758   0.7485   0.9386   C.ar      1 1      0.0000
    22 H9      -0.9812   1.3130   2.4722   H         1 1      0.0000
    23 C6      -1.5382  -0.8119  -0.7427   C.ar      1 1      0.0000
    24 H5       0.4962  -1.4536  -0.4945   H         1 1      0.0000
    25 C7      -2.5546  -0.0162  -0.2126   C.ar      1 1      0.0000
    26 H8      -3.1869   1.3620   1.3095   H         1 1      0.0000
    27 H6      -1.7174  -1.3816  -1.6454   H         1 1      0.0000
    28 NO      -3.8594   0.0211  -0.8974   N.pl3     1 1      0.0000
    29 ON2     -4.8953  -0.3550  -0.2354   O.2       1 1      0.0000
    30 ON1     -3.8833   0.4263  -2.1175   O.2       1 1      0.0000
    31 C15      3.7097  -1.8565  -1.7537   C.3       1 1      0.0000
    32 H15A     4.1819  -1.1472  -2.4441   H         1 1      0.0000
    33 H15C     4.3874  -2.7106  -1.6618   H         1 1      0.0000
    34 H15B     2.7793  -2.2397  -2.1909   H         1 1      0.0000
@<TRIPOS>BOND
     1     1     2    1
     2     1    15    1
     3     1    16    1
     4     1    18    1
     5     2     3    1
     6     2     4    1
     7     2    14    1
     8     4     5    1
     9     4     8    2
    10     5     6    1
    11     5     7    1
    12     5    31    1
    13     8     9    1
    14     8    10    1
    15    10    11    1
    16    10    12    1
    17    10    13    1
    18    15    17    1
    19    18    19   ar
    20    18    20   ar
    21    19    21   ar
    22    19    22    1
    23    20    23   ar
    24    20    24    1
    25    21    25   ar
    26    21    26    1
    27    23    25   ar
    28    23    27    1
    29    25    28    1
    30    28    29   un
    31    28    30   un
    32    31    32    1
    33    31    33    1
    34    31    34    1
@<TRIPOS>SUBSTRUCTURE
     1 1           1 GROUP             0 ****  ****    0  
@<TRIPOS>MOLECULE
Molecule Name_00073
    34    34     1     0     0
SMALL
NO_CHARGES
****
Generated from the CSD

@<TRIPOS>ATOM
     1 C11      1.0270  -0.2262   0.7676   C.3       1 1      0.0000
     2 C12      1.8231   0.3539  -0.4427   C.3       1 1      0.0000
     3 H12A     1.5530   1.4058  -0.5594   H         1 1      0.0000
     4 C13      3.3025   0.1773  -0.2392   C.2       1 1      0.0000
     5 C14      3.8243  -1.1982   0.0852   C.3       1 1      0.0000
     6 H14B     3.2565  -1.5631   0.9548   H         1 1      0.0000
     7 H14A     4.8586  -1.0741   0.4396   H         1 1      0.0000
     8 N        4.1294   1.1773  -0.3397   N.pl3     1 1      0.0000
     9 HN       5.1227   0.9818  -0.1840   H         1 1      0.0000
    10 C        3.7874   2.6096  -0.6134   C.3       1 1      0.0000
    11 HC       4.7004   3.1947  -0.4944   H         1 1      0.0000
    12 HB       3.4200   2.7138  -1.6390   H         1 1      0.0000
    13 HA       3.0358   2.9263   0.1108   H         1 1      0.0000
    14 H12B     1.5150  -0.1852  -1.3450   H         1 1      0.0000
    15 O1       1.4230   0.6572   1.8891   O.3       1 1      0.0000
    16 H11      1.3599  -1.2513   0.9725   H         1 1      0.0000
    17 OH1      0.9439   0.4108   2.7245   H         1 1      0.0000
    18 C10     -0.4635  -0.2132   0.4946   C.ar      1 1      0.0000
    19 C9      -1.1019  -1.3811   0.0518   C.ar      1 1      0.0000
    20 C5      -1.2012   0.9701   0.6618   C.ar      1 1      0.0000
    21 C8      -2.4664  -1.3674  -0.2421   C.ar      1 1      0.0000
    22 H9      -0.5422  -2.3053  -0.0611   H         1 1      0.0000
    23 C6      -2.5659   0.9918   0.3808   C.ar      1 1      0.0000
    24 H5      -0.7159   1.8680   1.0304   H         1 1      0.0000
    25 C7      -3.1743  -0.1788  -0.0743   C.ar      1 1      0.0000
    26 H8      -2.9797  -2.2564  -0.5857   H         1 1      0.0000
    27 H6      -3.1563   1.8901   0.5070   H         1 1      0.0000
    28 NO      -4.6158  -0.1581  -0.3818   N.pl3     1 1      0.0000
    29 ON2     -5.3817  -0.9510   0.2796   O.2       1 1      0.0000
    30 ON1     -5.0211   0.6513  -1.2951   O.2       1 1      0.0000
    31 C15      3.7772  -2.2334  -1.0530   C.3       1 1      0.0000
    32 H15A     4.3783  -1.9214  -1.9155   H         1 1      0.0000
    33 H15C     4.1980  -3.1783  -0.6965   H         1 1      0.0000
    34 H15B     2.7497  -2.4480  -1.3722   H         1 1      0.0000
@<TRIPOS>BOND
     1     1     2    1
     2     1    15    1
     3     1    16    1
     4     1    18    1
     5     2     3    1
     6     2     4    1
     7     2    14    1
     8     4     5    1
     9     4     8    2
    10     5     6    1
    11     5     7    1
    12     5    31    1
    13     8     9    1
    14     8    10    1
    15    10    11    1
    16    10    12    1
    17    10    13    1
    18    15    17    1
    19    18    19   ar
    20    18    20   ar
    21    19    21   ar
    22    19    22    1
    23    20    23   ar
    24    20    24    1
    25    21    25   ar
    26    21    26    1
    27    23    25   ar
    28    23    27    1
    29    25    28    1
    30    28    29   un
    31    28    30   un
    32    31    32    1
    33    31    33    1
    34    31    34    1
@<TRIPOS>SUBSTRUCTURE
     1 1           1 GROUP             0 ****  ****    0  
@<TRIPOS>MOLECULE
Molecule Name_00074
    34    34     1     0     0
SMALL
NO_CHARGES
****
Generated from the CSD

@<TRIPOS>ATOM
     1 C11      1.0760  -0.3795   0.4569   C.3       1 1      0.0000
     2 C12      1.7828   0.3767  -0.7109   C.3       1 1      0.0000
     3 H12A     1.5057   1.4317  -0.6547   H         1 1      0.0000
     4 C13      3.2729   0.1870  -0.6417   C.2       1 1      0.0000
     5 C14      3.8154  -1.2153  -0.5469   C.3       1 1      0.0000
     6 H14B     4.8583  -1.1834  -0.8976   H         1 1      0.0000
     7 H14A     3.2734  -1.8202  -1.2891   H         1 1      0.0000
     8 N        4.0915   1.1986  -0.6647   N.pl3     1 1      0.0000
     9 HN       5.0933   0.9924  -0.6099   H         1 1      0.0000
    10 C        3.7322   2.6518  -0.7148   C.3       1 1      0.0000
    11 HC       4.6521   3.2232  -0.5839   H         1 1      0.0000
    12 HB       3.2907   2.8914  -1.6871   H         1 1      0.0000
    13 HA       3.0360   2.8603   0.0987   H         1 1      0.0000
    14 H12B     1.4098  -0.0297  -1.6571   H         1 1      0.0000
    15 O1       1.5834   0.3116   1.6651   O.3       1 1      0.0000
    16 H11      1.4009  -1.4273   0.4696   H         1 1      0.0000
    17 OH1      1.1692  -0.0590   2.4893   H         1 1      0.0000
    18 C10     -0.4312  -0.3089   0.3170   C.ar      1 1      0.0000
    19 C9      -1.1307  -1.3858  -0.2474   C.ar      1 1      0.0000
    20 C5      -1.1251   0.8402   0.7296   C.ar      1 1      0.0000
    21 C8      -2.5142  -1.3125  -0.4184   C.ar      1 1      0.0000
    22 H9      -0.6038  -2.2860  -0.5508   H         1 1      0.0000
    23 C6      -2.5075   0.9195   0.5725   C.ar      1 1      0.0000
    24 H5      -0.5905   1.6638   1.1916   H         1 1      0.0000
    25 C7      -3.1782  -0.1584  -0.0069   C.ar      1 1      0.0000
    26 H8      -3.0744  -2.1309  -0.8521   H         1 1      0.0000
    27 H6      -3.0645   1.7924   0.8876   H         1 1      0.0000
    28 NO      -4.6392  -0.0753  -0.1837   N.pl3     1 1      0.0000
    29 ON2     -5.3661  -0.9551   0.4080   O.2       1 1      0.0000
    30 ON1     -5.0996   0.8722  -0.9212   O.2       1 1      0.0000
    31 C15      3.7399  -1.8855   0.8367   C.3       1 1      0.0000
    32 H15A     2.9256  -2.6178   0.8932   H         1 1      0.0000
    33 H15C     4.6708  -2.4293   1.0234   H         1 1      0.0000
    34 H15B     3.6380  -1.1509   1.6452   H         1 1      0.0000
@<TRIPOS>BOND
     1     1     2    1
     2     1    15    1
     3     1    16    1
     4     1    18    1
     5     2     3    1
     6     2     4    1
     7     2    14    1
     8     4     5    1
     9     4     8    2
    10     5     6    1
    11     5     7    1
    12     5    31    1
    13     8     9    1
    14     8    10    1
    15    10    11    1
    16    10    12    1
    17    10    13    1
    18    15    17    1
    19    18    19   ar
    20    18    20   ar
    21    19    21   ar
    22    19    22    1
    23    20    23   ar
    24    20    24    1
    25    21    25   ar
    26    21    26    1
    27    23    25   ar
    28    23    27    1
    29    25    28    1
    30    28    29   un
    31    28    30   un
    32    31    32    1
    33    31    33    1
    34    31    34    1
@<TRIPOS>SUBSTRUCTURE
     1 1           1 GROUP             0 ****  ****    0  
@<TRIPOS>MOLECULE
Molecule Name_00075
    34    34     1     0     0
SMALL
NO_CHARGES
****
Generated from the CSD

@<TRIPOS>ATOM
     1 C11      1.0337  -0.7077  -0.4059   C.3       1 1      0.0000
     2 C12      1.8350   0.3997   0.3470   C.3       1 1      0.0000
     3 H12A     1.7763   0.1978   1.4188   H         1 1      0.0000
     4 C13      3.2588   0.4455  -0.1346   C.2       1 1      0.0000
     5 C14      4.0452  -0.8388  -0.1763   C.3       1 1      0.0000
     6 H14B     4.9601  -0.6396  -0.7551   H         1 1      0.0000
     7 H14A     3.4641  -1.5519  -0.7800   H         1 1      0.0000
     8 N        3.8155   1.5592  -0.5137   N.pl3     1 1      0.0000
     9 HN       4.7900   1.5138  -0.8257   H         1 1      0.0000
    10 C        3.2035   2.9262  -0.5015   C.3       1 1      0.0000
    11 HC       3.9885   3.6407  -0.7529   H         1 1      0.0000
    12 HB       2.4071   2.9828  -1.2501   H         1 1      0.0000
    13 HA       2.8195   3.1201   0.5009   H         1 1      0.0000
    14 H12B     1.3547   1.3640   0.1491   H         1 1      0.0000
    15 O1       1.5047  -1.9597   0.2309   O.3       1 1      0.0000
    16 H11      1.3114  -0.7086  -1.4672   H         1 1      0.0000
    17 OH1      1.0307  -2.7503  -0.1413   H         1 1      0.0000
    18 C10     -0.4592  -0.4902  -0.2640   C.ar      1 1      0.0000
    19 C9      -1.1734   0.1399  -1.2937   C.ar      1 1      0.0000
    20 C5      -1.1236  -0.8971   0.9045   C.ar      1 1      0.0000
    21 C8      -2.5411   0.3818  -1.1538   C.ar      1 1      0.0000
    22 H9      -0.6706   0.4397  -2.2088   H         1 1      0.0000
    23 C6      -2.4907  -0.6693   1.0498   C.ar      1 1      0.0000
    24 H5      -0.5794  -1.4094   1.6912   H         1 1      0.0000
    25 C7      -3.1754  -0.0257   0.0182   C.ar      1 1      0.0000
    26 H8      -3.1122   0.8670  -1.9350   H         1 1      0.0000
    27 H6      -3.0254  -0.9785   1.9386   H         1 1      0.0000
    28 NO      -4.6198   0.2258   0.1715   N.pl3     1 1      0.0000
    29 ON2     -5.4153  -0.3020  -0.6894   O.2       1 1      0.0000
    30 ON1     -4.9978   0.9602   1.1570   O.2       1 1      0.0000
    31 C15      4.4021  -1.4664   1.1831   C.3       1 1      0.0000
    32 H15A     3.5076  -1.7252   1.7623   H         1 1      0.0000
    33 H15C     4.9532  -2.3966   1.0154   H         1 1      0.0000
    34 H15B     5.0565  -0.8167   1.7775   H         1 1      0.0000
@<TRIPOS>BOND
     1     1     2    1
     2     1    15    1
     3     1    16    1
     4     1    18    1
     5     2     3    1
     6     2     4    1
     7     2    14    1
     8     4     5    1
     9     4     8    2
    10     5     6    1
    11     5     7    1
    12     5    31    1
    13     8     9    1
    14     8    10    1
    15    10    11    1
    16    10    12    1
    17    10    13    1
    18    15    17    1
    19    18    19   ar
    20    18    20   ar
    21    19    21   ar
    22    19    22    1
    23    20    23   ar
    24    20    24    1
    25    21    25   ar
    26    21    26    1
    27    23    25   ar
    28    23    27    1
    29    25    28    1
    30    28    29   un
    31    28    30   un
    32    31    32    1
    33    31    33    1
    34    31    34    1
@<TRIPOS>SUBSTRUCTURE
     1 1           1 GROUP             0 ****  ****    0  
@<TRIPOS>MOLECULE
Molecule Name_00076
    34    34     1     0     0
SMALL
NO_CHARGES
****
Generated from the CSD

@<TRIPOS>ATOM
     1 C11      1.0018   0.2403  -0.8051   C.3       1 1      0.0000
     2 C12      1.8454  -0.2844   0.3983   C.3       1 1      0.0000
     3 H12A     1.6554  -1.3541   0.5109   H         1 1      0.0000
     4 C13      3.3063   0.0035   0.1886   C.2       1 1      0.0000
     5 C14      4.2397  -1.1543  -0.0524   C.3       1 1      0.0000
     6 H14B     5.1732  -0.7380  -0.4611   H         1 1      0.0000
     7 H14A     3.8040  -1.7543  -0.8653   H         1 1      0.0000
     8 N        3.7722   1.2185   0.2084   N.pl3     1 1      0.0000
     9 HN       4.7789   1.3371   0.0618   H         1 1      0.0000
    10 C        3.0044   2.4773   0.4718   C.3       1 1      0.0000
    11 HC       3.7245   3.2533   0.7350   H         1 1      0.0000
    12 HB       2.4615   2.7762  -0.4302   H         1 1      0.0000
    13 HA       2.3219   2.2942   1.3027   H         1 1      0.0000
    14 H12B     1.5025   0.2258   1.3049   H         1 1      0.0000
    15 O1       1.4312  -0.6290  -1.9253   O.3       1 1      0.0000
    16 H11      1.2741   1.2806  -1.0224   H         1 1      0.0000
    17 OH1      0.9278  -0.4168  -2.7557   H         1 1      0.0000
    18 C10     -0.4818   0.1466  -0.5111   C.ar      1 1      0.0000
    19 C9      -1.1783   1.2808  -0.0683   C.ar      1 1      0.0000
    20 C5      -1.1545  -1.0773  -0.6589   C.ar      1 1      0.0000
    21 C8      -2.5359   1.1936   0.2448   C.ar      1 1      0.0000
    22 H9      -0.6696   2.2357   0.0296   H         1 1      0.0000
    23 C6      -2.5120  -1.1726  -0.3586   C.ar      1 1      0.0000
    24 H5      -0.6250  -1.9498  -1.0274   H         1 1      0.0000
    25 C7      -3.1785  -0.0340   0.0960   C.ar      1 1      0.0000
    26 H8      -3.0932   2.0555   0.5887   H         1 1      0.0000
    27 H6      -3.0529  -2.1035  -0.4697   H         1 1      0.0000
    28 NO      -4.6123  -0.1323   0.4238   N.pl3     1 1      0.0000
    29 ON2     -5.4301   0.6111  -0.2328   O.2       1 1      0.0000
    30 ON1     -4.9594  -0.9553   1.3489   O.2       1 1      0.0000
    31 C15      4.5439  -2.0513   1.1609   C.3       1 1      0.0000
    32 H15A     3.6375  -2.5234   1.5587   H         1 1      0.0000
    33 H15C     5.2140  -2.8589   0.8512   H         1 1      0.0000
    34 H15B     5.0604  -1.5035   1.9589   H         1 1      0.0000
@<TRIPOS>BOND
     1     1     2    1
     2     1    15    1
     3     1    16    1
     4     1    18    1
     5     2     3    1
     6     2     4    1
     7     2    14    1
     8     4     5    1
     9     4     8    2
    10     5     6    1
    11     5     7    1
    12     5    31    1
    13     8     9    1
    14     8    10    1
    15    10    11    1
    16    10    12    1
    17    10    13    1
    18    15    17    1
    19    18    19   ar
    20    18    20   ar
    21    19    21   ar
    22    19    22    1
    23    20    23   ar
    24    20    24    1
    25    21    25   ar
    26    21    26    1
    27    23    25   ar
    28    23    27    1
    29    25    28    1
    30    28    29   un
    31    28    30   un
    32    31    32    1
    33    31    33    1
    34    31    34    1
@<TRIPOS>SUBSTRUCTURE
     1 1           1 GROUP             0 ****  ****    0  
@<TRIPOS>MOLECULE
Molecule Name_00077
    34    34     1     0     0
SMALL
NO_CHARGES
****
Generated from the CSD

@<TRIPOS>ATOM
     1 C11      1.1049  -0.6904  -0.0885   C.3       1 1      0.0000
     2 C12      1.8774   0.4009   0.7161   C.3       1 1      0.0000
     3 H12A     1.8775   0.1152   1.7703   H         1 1      0.0000
     4 C13      3.2737   0.5654   0.1828   C.2       1 1      0.0000
     5 C14      4.3420  -0.3836   0.6603   C.3       1 1      0.0000
     6 H14B     4.2791  -0.4155   1.7588   H         1 1      0.0000
     7 H14A     5.3118   0.0845   0.4342   H         1 1      0.0000
     8 N        3.5714   1.4984  -0.6744   N.pl3     1 1      0.0000
     9 HN       4.5443   1.5519  -0.9902   H         1 1      0.0000
    10 C        2.6544   2.5473  -1.2243   C.3       1 1      0.0000
    11 HC       3.2610   3.2429  -1.8059   H         1 1      0.0000
    12 HB       1.9082   2.0829  -1.8763   H         1 1      0.0000
    13 HA       2.1828   3.0627  -0.3866   H         1 1      0.0000
    14 H12B     1.3369   1.3482   0.6138   H         1 1      0.0000
    15 O1       1.5078  -1.9514   0.5769   O.3       1 1      0.0000
    16 H11      1.4514  -0.6976  -1.1293   H         1 1      0.0000
    17 OH1      1.1871  -2.7425   0.0676   H         1 1      0.0000
    18 C10     -0.3894  -0.4428  -0.0444   C.ar      1 1      0.0000
    19 C9      -1.2676  -1.5128   0.1821   C.ar      1 1      0.0000
    20 C5      -0.8968   0.8501  -0.2526   C.ar      1 1      0.0000
    21 C8      -2.6473  -1.3011   0.1828   C.ar      1 1      0.0000
    22 H9      -0.8822  -2.5122   0.3636   H         1 1      0.0000
    23 C6      -2.2722   1.0739  -0.2439   C.ar      1 1      0.0000
    24 H5      -0.2193   1.6847  -0.4007   H         1 1      0.0000
    25 C7      -3.1254  -0.0100  -0.0329   C.ar      1 1      0.0000
    26 H8      -3.3436  -2.1119   0.3549   H         1 1      0.0000
    27 H6      -2.6865   2.0621  -0.3966   H         1 1      0.0000
    28 NO      -4.5814   0.2203  -0.0322   N.pl3     1 1      0.0000
    29 ON2     -4.9991   1.4194  -0.2333   O.2       1 1      0.0000
    30 ON1     -5.3472  -0.7924   0.1712   O.2       1 1      0.0000
    31 C15      4.2971  -1.8098   0.0833   C.3       1 1      0.0000
    32 H15A     3.7546  -1.8496  -0.8689   H         1 1      0.0000
    33 H15C     5.3181  -2.1482  -0.1173   H         1 1      0.0000
    34 H15B     3.8622  -2.5268   0.7908   H         1 1      0.0000
@<TRIPOS>BOND
     1     1     2    1
     2     1    15    1
     3     1    16    1
     4     1    18    1
     5     2     3    1
     6     2     4    1
     7     2    14    1
     8     4     5    1
     9     4     8    2
    10     5     6    1
    11     5     7    1
    12     5    31    1
    13     8     9    1
    14     8    10    1
    15    10    11    1
    16    10    12    1
    17    10    13    1
    18    15    17    1
    19    18    19   ar
    20    18    20   ar
    21    19    21   ar
    22    19    22    1
    23    20    23   ar
    24    20    24    1
    25    21    25   ar
    26    21    26    1
    27    23    25   ar
    28    23    27    1
    29    25    28    1
    30    28    29   un
    31    28    30   un
    32    31    32    1
    33    31    33    1
    34    31    34    1
@<TRIPOS>SUBSTRUCTURE
     1 1           1 GROUP             0 ****  ****    0  
@<TRIPOS>MOLECULE
Molecule Name_00078
    34    34     1     0     0
SMALL
NO_CHARGES
****
Generated from the CSD

@<TRIPOS>ATOM
     1 C11      1.2516  -0.7263   1.4180   C.3       1 1      0.0000
     2 C12      2.2408   0.3852   0.9476   C.3       1 1      0.0000
     3 H12A     3.1756   0.2698   1.5005   H         1 1      0.0000
     4 C13      2.4586   0.3083  -0.5383   C.2       1 1      0.0000
     5 C14      2.7135  -1.0408  -1.1586   C.3       1 1      0.0000
     6 H14B     2.5867  -0.9263  -2.2460   H         1 1      0.0000
     7 H14A     1.8964  -1.7027  -0.8348   H         1 1      0.0000
     8 N        2.4286   1.3714  -1.2884   N.pl3     1 1      0.0000
     9 HN       2.5895   1.2422  -2.2916   H         1 1      0.0000
    10 C        2.2305   2.7876  -0.8425   C.3       1 1      0.0000
    11 HC       2.7604   3.4314  -1.5458   H         1 1      0.0000
    12 HB       1.1645   3.0349  -0.8555   H         1 1      0.0000
    13 HA       2.6494   2.8926   0.1591   H         1 1      0.0000
    14 H12B     1.8068   1.3587   1.1999   H         1 1      0.0000
    15 O1       1.3222  -0.6404   2.8954   O.3       1 1      0.0000
    16 H11      1.6146  -1.7081   1.0895   H         1 1      0.0000
    17 OH1      0.6953  -1.2837   3.3212   H         1 1      0.0000
    18 C10     -0.1405  -0.4822   0.8713   C.ar      1 1      0.0000
    19 C9      -1.1550  -1.4232   1.1006   C.ar      1 1      0.0000
    20 C5      -0.4101   0.6715   0.1172   C.ar      1 1      0.0000
    21 C8      -2.4293  -1.2269   0.5655   C.ar      1 1      0.0000
    22 H9      -0.9597  -2.3083   1.6995   H         1 1      0.0000
    23 C6      -1.6815   0.8819  -0.4130   C.ar      1 1      0.0000
    24 H5       0.3650   1.4147  -0.0389   H         1 1      0.0000
    25 C7      -2.6691  -0.0772  -0.1847   C.ar      1 1      0.0000
    26 H8      -3.2272  -1.9399   0.7291   H         1 1      0.0000
    27 H6      -1.9146   1.7656  -0.9928   H         1 1      0.0000
    28 NO      -4.0129   0.1365  -0.7516   N.pl3     1 1      0.0000
    29 ON2     -4.2107   1.2040  -1.4401   O.2       1 1      0.0000
    30 ON1     -4.9082  -0.7575  -0.5220   O.2       1 1      0.0000
    31 C15      4.0737  -1.6905  -0.8473   C.3       1 1      0.0000
    32 H15A     4.2075  -1.8661   0.2269   H         1 1      0.0000
    33 H15C     4.1261  -2.6667  -1.3386   H         1 1      0.0000
    34 H15B     4.9115  -1.0982  -1.2358   H         1 1      0.0000
@<TRIPOS>BOND
     1     1     2    1
     2     1    15    1
     3     1    16    1
     4     1    18    1
     5     2     3    1
     6     2     4    1
     7     2    14    1
     8     4     5    1
     9     4     8    2
    10     5     6    1
    11     5     7    1
    12     5    31    1
    13     8     9    1
    14     8    10    1
    15    10    11    1
    16    10    12    1
    17    10    13    1
    18    15    17    1
    19    18    19   ar
    20    18    20   ar
    21    19    21   ar
    22    19    22    1
    23    20    23   ar
    24    20    24    1
    25    21    25   ar
    26    21    26    1
    27    23    25   ar
    28    23    27    1
    29    25    28    1
    30    28    29   un
    31    28    30   un
    32    31    32    1
    33    31    33    1
    34    31    34    1
@<TRIPOS>SUBSTRUCTURE
     1 1           1 GROUP             0 ****  ****    0  
@<TRIPOS>MOLECULE
Molecule Name_00079
    34    34     1     0     0
SMALL
NO_CHARGES
****
Generated from the CSD

@<TRIPOS>ATOM
     1 C11      1.3785  -0.6163   1.4955   C.3       1 1      0.0000
     2 C12      2.3342   0.5266   1.0312   C.3       1 1      0.0000
     3 H12A     3.2422   0.4825   1.6365   H         1 1      0.0000
     4 C13      2.6360   0.4033  -0.4368   C.2       1 1      0.0000
     5 C14      2.9906  -0.9540  -0.9861   C.3       1 1      0.0000
     6 H14B     3.7158  -1.4050  -0.2916   H         1 1      0.0000
     7 H14A     3.5440  -0.7870  -1.9224   H         1 1      0.0000
     8 N        2.5942   1.4334  -1.2311   N.pl3     1 1      0.0000
     9 HN       2.8156   1.2736  -2.2182   H         1 1      0.0000
    10 C        2.3024   2.8537  -0.8555   C.3       1 1      0.0000
    11 HC       2.8422   3.4962  -1.5525   H         1 1      0.0000
    12 HB       1.2285   3.0467  -0.9404   H         1 1      0.0000
    13 HA       2.6550   3.0174   0.1636   H         1 1      0.0000
    14 H12B     1.8383   1.4849   1.2195   H         1 1      0.0000
    15 O1       1.3717  -0.4750   2.9703   O.3       1 1      0.0000
    16 H11      1.8049  -1.5894   1.2218   H         1 1      0.0000
    17 OH1      0.7568  -1.1339   3.3896   H         1 1      0.0000
    18 C10      0.0049  -0.4625   0.8744   C.ar      1 1      0.0000
    19 C9      -0.2852   0.6657   0.0930   C.ar      1 1      0.0000
    20 C5      -0.9836  -1.4346   1.0983   C.ar      1 1      0.0000
    21 C8      -1.5605   0.8362  -0.4484   C.ar      1 1      0.0000
    22 H9       0.4798   1.4122  -0.1012   H         1 1      0.0000
    23 C6      -2.2570  -1.2789   0.5540   C.ar      1 1      0.0000
    24 H5      -0.7544  -2.3220   1.6793   H         1 1      0.0000
    25 C7      -2.5254  -0.1396  -0.2058   C.ar      1 1      0.0000
    26 H8      -1.8069   1.6990  -1.0538   H         1 1      0.0000
    27 H6      -3.0334  -2.0170   0.7084   H         1 1      0.0000
    28 NO      -3.8737   0.0340  -0.7757   N.pl3     1 1      0.0000
    29 ON2     -4.7473  -0.8788  -0.5386   O.2       1 1      0.0000
    30 ON1     -4.0952   1.0882  -1.4779   O.2       1 1      0.0000
    31 C15      1.8177  -1.9201  -1.2316   C.3       1 1      0.0000
    32 H15A     0.8692  -1.3866  -1.3671   H         1 1      0.0000
    33 H15C     2.0018  -2.4815  -2.1525   H         1 1      0.0000
    34 H15B     1.7183  -2.6598  -0.4275   H         1 1      0.0000
@<TRIPOS>BOND
     1     1     2    1
     2     1    15    1
     3     1    16    1
     4     1    18    1
     5     2     3    1
     6     2     4    1
     7     2    14    1
     8     4     5    1
     9     4     8    2
    10     5     6    1
    11     5     7    1
    12     5    31    1
    13     8     9    1
    14     8    10    1
    15    10    11    1
    16    10    12    1
    17    10    13    1
    18    15    17    1
    19    18    19   ar
    20    18    20   ar
    21    19    21   ar
    22    19    22    1
    23    20    23   ar
    24    20    24    1
    25    21    25   ar
    26    21    26    1
    27    23    25   ar
    28    23    27    1
    29    25    28    1
    30    28    29   un
    31    28    30   un
    32    31    32    1
    33    31    33    1
    34    31    34    1
@<TRIPOS>SUBSTRUCTURE
     1 1           1 GROUP             0 ****  ****    0  
@<TRIPOS>MOLECULE
Molecule Name_00080
    34    34     1     0     0
SMALL
NO_CHARGES
****
Generated from the CSD

@<TRIPOS>ATOM
     1 C11      0.9460  -0.6869   0.2914   C.3       1 1      0.0000
     2 C12      1.7332   0.3123  -0.6126   C.3       1 1      0.0000
     3 H12A     1.3817   1.3232  -0.3946   H         1 1      0.0000
     4 C13      3.2141   0.1767  -0.3900   C.2       1 1      0.0000
     5 C14      3.8333  -1.1933  -0.4879   C.3       1 1      0.0000
     6 H14B     3.5785  -1.5935  -1.4812   H         1 1      0.0000
     7 H14A     3.3061  -1.8363   0.2328   H         1 1      0.0000
     8 N        3.9611   1.2079  -0.1208   N.pl3     1 1      0.0000
     9 HN       4.9609   1.0380   0.0224   H         1 1      0.0000
    10 C        3.5148   2.6270   0.0535   C.3       1 1      0.0000
    11 HC       4.3733   3.2015   0.4043   H         1 1      0.0000
    12 HB       3.1755   3.0296  -0.9059   H         1 1      0.0000
    13 HA       2.7158   2.6456   0.7959   H         1 1      0.0000
    14 H12B     1.5018   0.0829  -1.6583   H         1 1      0.0000
    15 O1       1.4872  -0.4193   1.6444   O.3       1 1      0.0000
    16 H11      1.1834  -1.7172  -0.0017   H         1 1      0.0000
    17 OH1      1.0294  -0.9760   2.3289   H         1 1      0.0000
    18 C10     -0.5476  -0.4529   0.1883   C.ar      1 1      0.0000
    19 C9      -1.4286  -1.2133   0.9712   C.ar      1 1      0.0000
    20 C5      -1.0514   0.5065  -0.7050   C.ar      1 1      0.0000
    21 C8      -2.8078  -1.0335   0.8523   C.ar      1 1      0.0000
    22 H9      -1.0459  -1.9434   1.6789   H         1 1      0.0000
    23 C6      -2.4262   0.7008  -0.8240   C.ar      1 1      0.0000
    24 H5      -0.3717   1.1155  -1.2920   H         1 1      0.0000
    25 C7      -3.2823  -0.0799  -0.0463   C.ar      1 1      0.0000
    26 H8      -3.5062  -1.6094   1.4458   H         1 1      0.0000
    27 H6      -2.8378   1.4376  -1.5016   H         1 1      0.0000
    28 NO      -4.7377   0.1155  -0.1757   N.pl3     1 1      0.0000
    29 ON2     -5.1594   1.2868  -0.4965   O.2       1 1      0.0000
    30 ON1     -5.4990  -0.8977   0.0418   O.2       1 1      0.0000
    31 C15      5.3526  -1.2752  -0.2552   C.3       1 1      0.0000
    32 H15A     5.6324  -0.9319   0.7480   H         1 1      0.0000
    33 H15C     5.6723  -2.3185  -0.3356   H         1 1      0.0000
    34 H15B     5.9159  -0.7151  -1.0119   H         1 1      0.0000
@<TRIPOS>BOND
     1     1     2    1
     2     1    15    1
     3     1    16    1
     4     1    18    1
     5     2     3    1
     6     2     4    1
     7     2    14    1
     8     4     5    1
     9     4     8    2
    10     5     6    1
    11     5     7    1
    12     5    31    1
    13     8     9    1
    14     8    10    1
    15    10    11    1
    16    10    12    1
    17    10    13    1
    18    15    17    1
    19    18    19   ar
    20    18    20   ar
    21    19    21   ar
    22    19    22    1
    23    20    23   ar
    24    20    24    1
    25    21    25   ar
    26    21    26    1
    27    23    25   ar
    28    23    27    1
    29    25    28    1
    30    28    29   un
    31    28    30   un
    32    31    32    1
    33    31    33    1
    34    31    34    1
@<TRIPOS>SUBSTRUCTURE
     1 1           1 GROUP             0 ****  ****    0  
@<TRIPOS>MOLECULE
Molecule Name_00081
    34    34     1     0     0
SMALL
NO_CHARGES
****
Generated from the CSD

@<TRIPOS>ATOM
     1 C11      0.9463   0.6530  -0.1928   C.3       1 1      0.0000
     2 C12      1.7502  -0.5778   0.3305   C.3       1 1      0.0000
     3 H12A     1.3930  -1.4686  -0.1909   H         1 1      0.0000
     4 C13      3.2265  -0.3709   0.1336   C.2       1 1      0.0000
     5 C14      3.9459  -1.2343  -0.8698   C.3       1 1      0.0000
     6 H14B     3.8530  -0.7391  -1.8486   H         1 1      0.0000
     7 H14A     3.3734  -2.1699  -0.9575   H         1 1      0.0000
     8 N        3.8847   0.5304   0.8032   N.pl3     1 1      0.0000
     9 HN       4.8889   0.6113   0.6187   H         1 1      0.0000
    10 C        3.3461   1.4434   1.8614   C.3       1 1      0.0000
    11 HC       4.1980   1.8784   2.3858   H         1 1      0.0000
    12 HB       2.7581   2.2418   1.3983   H         1 1      0.0000
    13 HA       2.7391   0.8513   2.5475   H         1 1      0.0000
    14 H12B     1.5404  -0.6943   1.3992   H         1 1      0.0000
    15 O1       1.4595   0.8326  -1.5710   O.3       1 1      0.0000
    16 H11      1.1910   1.5377   0.4082   H         1 1      0.0000
    17 OH1      0.9888   1.5758  -2.0337   H         1 1      0.0000
    18 C10     -0.5452   0.3907  -0.1402   C.ar      1 1      0.0000
    19 C9      -1.4408   1.3563  -0.6229   C.ar      1 1      0.0000
    20 C5      -1.0322  -0.8056   0.4111   C.ar      1 1      0.0000
    21 C8      -2.8176   1.1409  -0.5403   C.ar      1 1      0.0000
    22 H9      -1.0716   2.2755  -1.0688   H         1 1      0.0000
    23 C6      -2.4046  -1.0347   0.4891   C.ar      1 1      0.0000
    24 H5      -0.3416  -1.5662   0.7602   H         1 1      0.0000
    25 C7      -3.2752  -0.0515   0.0173   C.ar      1 1      0.0000
    26 H8      -3.5271   1.8722  -0.9058   H         1 1      0.0000
    27 H6      -2.8034  -1.9509   0.9049   H         1 1      0.0000
    28 NO      -4.7279  -0.2853   0.1063   N.pl3     1 1      0.0000
    29 ON2     -5.1266  -1.3923   0.6243   O.2       1 1      0.0000
    30 ON1     -5.5101   0.6319  -0.3412   O.2       1 1      0.0000
    31 C15      5.4230  -1.5456  -0.5695   C.3       1 1      0.0000
    32 H15A     5.5434  -2.0870   0.3765   H         1 1      0.0000
    33 H15C     5.8215  -2.1905  -1.3585   H         1 1      0.0000
    34 H15B     6.0417  -0.6396  -0.5623   H         1 1      0.0000
@<TRIPOS>BOND
     1     1     2    1
     2     1    15    1
     3     1    16    1
     4     1    18    1
     5     2     3    1
     6     2     4    1
     7     2    14    1
     8     4     5    1
     9     4     8    2
    10     5     6    1
    11     5     7    1
    12     5    31    1
    13     8     9    1
    14     8    10    1
    15    10    11    1
    16    10    12    1
    17    10    13    1
    18    15    17    1
    19    18    19   ar
    20    18    20   ar
    21    19    21   ar
    22    19    22    1
    23    20    23   ar
    24    20    24    1
    25    21    25   ar
    26    21    26    1
    27    23    25   ar
    28    23    27    1
    29    25    28    1
    30    28    29   un
    31    28    30   un
    32    31    32    1
    33    31    33    1
    34    31    34    1
@<TRIPOS>SUBSTRUCTURE
     1 1           1 GROUP             0 ****  ****    0  
@<TRIPOS>MOLECULE
Molecule Name_00082
    34    34     1     0     0
SMALL
NO_CHARGES
****
Generated from the CSD

@<TRIPOS>ATOM
     1 C11      1.2207  -0.2001   1.8285   C.3       1 1      0.0000
     2 C12      2.2773   0.6422   1.0480   C.3       1 1      0.0000
     3 H12A     3.1948   0.6762   1.6395   H         1 1      0.0000
     4 C13      2.5159   0.0611  -0.3182   C.2       1 1      0.0000
     5 C14      2.8774  -1.3975  -0.4258   C.3       1 1      0.0000
     6 H14B     2.0835  -1.9662   0.0821   H         1 1      0.0000
     7 H14A     3.7828  -1.5496   0.1807   H         1 1      0.0000
     8 N        2.4142   0.7849  -1.3951   N.pl3     1 1      0.0000
     9 HN       2.5949   0.3214  -2.2904   H         1 1      0.0000
    10 C        2.1062   2.2485  -1.4752   C.3       1 1      0.0000
    11 HC       2.2336   2.5554  -2.5142   H         1 1      0.0000
    12 HB       1.0711   2.4270  -1.1678   H         1 1      0.0000
    13 HA       2.8079   2.7815  -0.8324   H         1 1      0.0000
    14 H12B     1.8931   1.6628   0.9451   H         1 1      0.0000
    15 O1       1.1952   0.4407   3.1641   O.3       1 1      0.0000
    16 H11      1.5704  -1.2355   1.9247   H         1 1      0.0000
    17 OH1      0.5192   0.0119   3.7534   H         1 1      0.0000
    18 C10     -0.1223  -0.1728   1.1272   C.ar      1 1      0.0000
    19 C9      -0.5067  -1.2492   0.3140   C.ar      1 1      0.0000
    20 C5      -0.9713   0.9366   1.2714   C.ar      1 1      0.0000
    21 C8      -1.7237  -1.2139  -0.3689   C.ar      1 1      0.0000
    22 H9       0.1355  -2.1195   0.2131   H         1 1      0.0000
    23 C6      -2.1927   0.9772   0.6019   C.ar      1 1      0.0000
    24 H5      -0.6892   1.7585   1.9213   H         1 1      0.0000
    25 C7      -2.5448  -0.0987  -0.2142   C.ar      1 1      0.0000
    26 H8      -2.0405  -2.0327  -1.0022   H         1 1      0.0000
    27 H6      -2.8659   1.8188   0.7016   H         1 1      0.0000
    28 NO      -3.8317  -0.0559  -0.9319   N.pl3     1 1      0.0000
    29 ON2     -4.6887  -0.9810  -0.6821   O.2       1 1      0.0000
    30 ON1     -4.0195   0.9039  -1.7667   O.2       1 1      0.0000
    31 C15      3.0968  -1.9445  -1.8478   C.3       1 1      0.0000
    32 H15A     3.9189  -1.4317  -2.3615   H         1 1      0.0000
    33 H15C     3.3694  -3.0024  -1.7874   H         1 1      0.0000
    34 H15B     2.1850  -1.8895  -2.4554   H         1 1      0.0000
@<TRIPOS>BOND
     1     1     2    1
     2     1    15    1
     3     1    16    1
     4     1    18    1
     5     2     3    1
     6     2     4    1
     7     2    14    1
     8     4     5    1
     9     4     8    2
    10     5     6    1
    11     5     7    1
    12     5    31    1
    13     8     9    1
    14     8    10    1
    15    10    11    1
    16    10    12    1
    17    10    13    1
    18    15    17    1
    19    18    19   ar
    20    18    20   ar
    21    19    21   ar
    22    19    22    1
    23    20    23   ar
    24    20    24    1
    25    21    25   ar
    26    21    26    1
    27    23    25   ar
    28    23    27    1
    29    25    28    1
    30    28    29   un
    31    28    30   un
    32    31    32    1
    33    31    33    1
    34    31    34    1
@<TRIPOS>SUBSTRUCTURE
     1 1           1 GROUP             0 ****  ****    0  
@<TRIPOS>MOLECULE
Molecule Name_00083
    34    34     1     0     0
SMALL
NO_CHARGES
****
Generated from the CSD

@<TRIPOS>ATOM
     1 C11      1.2043   1.1547  -1.2453   C.3       1 1      0.0000
     2 C12      2.2963   0.0706  -0.9861   C.3       1 1      0.0000
     3 H12A     3.2397   0.4254  -1.4069   H         1 1      0.0000
     4 C13      2.4164  -0.2216   0.4841   C.2       1 1      0.0000
     5 C14      1.9622  -1.5664   0.9892   C.3       1 1      0.0000
     6 H14B     0.9384  -1.7233   0.6163   H         1 1      0.0000
     7 H14A     1.8682  -1.4840   2.0824   H         1 1      0.0000
     8 N        2.9017   0.6533   1.3165   N.pl3     1 1      0.0000
     9 HN       2.9492   0.3851   2.3038   H         1 1      0.0000
    10 C        3.3610   2.0437   1.0012   C.3       1 1      0.0000
    11 HC       4.0877   2.3309   1.7624   H         1 1      0.0000
    12 HB       3.8391   2.0621   0.0170   H         1 1      0.0000
    13 HA       2.4947   2.7057   1.0334   H         1 1      0.0000
    14 H12B     2.0034  -0.8433  -1.5140   H         1 1      0.0000
    15 O1       1.2744   1.3635  -2.7104   O.3       1 1      0.0000
    16 H11      1.4752   2.0839  -0.7287   H         1 1      0.0000
    17 OH1      0.5874   2.0157  -3.0117   H         1 1      0.0000
    18 C10     -0.1555   0.6805  -0.7738   C.ar      1 1      0.0000
    19 C9      -0.9198   1.4904   0.0789   C.ar      1 1      0.0000
    20 C5      -0.6408  -0.5764  -1.1701   C.ar      1 1      0.0000
    21 C8      -2.1550   1.0437   0.5516   C.ar      1 1      0.0000
    22 H9      -0.5602   2.4722   0.3741   H         1 1      0.0000
    23 C6      -1.8772  -1.0275  -0.7120   C.ar      1 1      0.0000
    24 H5      -0.0645  -1.1937  -1.8515   H         1 1      0.0000
    25 C7      -2.6109  -0.2101   0.1488   C.ar      1 1      0.0000
    26 H8      -2.7615   1.6515   1.2108   H         1 1      0.0000
    27 H6      -2.2744  -1.9899  -1.0077   H         1 1      0.0000
    28 NO      -3.9150  -0.6870   0.6435   N.pl3     1 1      0.0000
    29 ON2     -4.0756  -1.9546   0.7854   O.2       1 1      0.0000
    30 ON1     -4.8152   0.1939   0.9023   O.2       1 1      0.0000
    31 C15      2.8509  -2.7693   0.6252   C.3       1 1      0.0000
    32 H15A     3.8652  -2.6662   1.0291   H         1 1      0.0000
    33 H15C     2.4242  -3.6765   1.0634   H         1 1      0.0000
    34 H15B     2.8958  -2.9352  -0.4584   H         1 1      0.0000
@<TRIPOS>BOND
     1     1     2    1
     2     1    15    1
     3     1    16    1
     4     1    18    1
     5     2     3    1
     6     2     4    1
     7     2    14    1
     8     4     5    1
     9     4     8    2
    10     5     6    1
    11     5     7    1
    12     5    31    1
    13     8     9    1
    14     8    10    1
    15    10    11    1
    16    10    12    1
    17    10    13    1
    18    15    17    1
    19    18    19   ar
    20    18    20   ar
    21    19    21   ar
    22    19    22    1
    23    20    23   ar
    24    20    24    1
    25    21    25   ar
    26    21    26    1
    27    23    25   ar
    28    23    27    1
    29    25    28    1
    30    28    29   un
    31    28    30   un
    32    31    32    1
    33    31    33    1
    34    31    34    1
@<TRIPOS>SUBSTRUCTURE
     1 1           1 GROUP             0 ****  ****    0  
@<TRIPOS>MOLECULE
Molecule Name_00084
    34    34     1     0     0
SMALL
NO_CHARGES
****
Generated from the CSD

@<TRIPOS>ATOM
     1 C11      1.0344  -0.1606  -0.5758   C.3       1 1      0.0000
     2 C12      1.7590   0.4391   0.6694   C.3       1 1      0.0000
     3 H12A     1.4092  -0.0901   1.5585   H         1 1      0.0000
     4 C13      3.2515   0.3418   0.5136   C.2       1 1      0.0000
     5 C14      3.9349  -0.9374   0.9213   C.3       1 1      0.0000
     6 H14B     3.2392  -1.4808   1.5789   H         1 1      0.0000
     7 H14A     4.7860  -0.6574   1.5600   H         1 1      0.0000
     8 N        3.9537   1.3284   0.0366   N.pl3     1 1      0.0000
     9 HN       4.9660   1.1909  -0.0369   H         1 1      0.0000
    10 C        3.4524   2.6774  -0.3787   C.3       1 1      0.0000
    11 HC       4.3219   3.2983  -0.5986   H         1 1      0.0000
    12 HB       2.8361   2.5834  -1.2781   H         1 1      0.0000
    13 HA       2.8827   3.1005   0.4497   H         1 1      0.0000
    14 H12B     1.4723   1.4925   0.7578   H         1 1      0.0000
    15 O1       1.5940  -1.5293  -0.6676   O.3       1 1      0.0000
    16 H11      1.3077   0.4087  -1.4729   H         1 1      0.0000
    17 OH1      1.1752  -2.0375  -1.4122   H         1 1      0.0000
    18 C10     -0.4695  -0.1412  -0.3915   C.ar      1 1      0.0000
    19 C9      -1.2297   0.8878  -0.9665   C.ar      1 1      0.0000
    20 C5      -1.0997  -1.1373   0.3721   C.ar      1 1      0.0000
    21 C8      -2.6105   0.9367  -0.7670   C.ar      1 1      0.0000
    22 H9      -0.7523   1.6508  -1.5749   H         1 1      0.0000
    23 C6      -2.4788  -1.1032   0.5689   C.ar      1 1      0.0000
    24 H5      -0.5182  -1.9499   0.7953   H         1 1      0.0000
    25 C7      -3.2105  -0.0599   0.0002   C.ar      1 1      0.0000
    26 H8      -3.2169   1.7216  -1.2006   H         1 1      0.0000
    27 H6      -2.9874  -1.8625   1.1489   H         1 1      0.0000
    28 NO      -4.6684  -0.0145   0.2136   N.pl3     1 1      0.0000
    29 ON2     -5.1570   1.0205   0.7989   O.2       1 1      0.0000
    30 ON1     -5.3646  -1.0145  -0.1973   O.2       1 1      0.0000
    31 C15      4.4110  -1.8525  -0.2211   C.3       1 1      0.0000
    32 H15A     4.4882  -1.3130  -1.1728   H         1 1      0.0000
    33 H15C     5.4111  -2.2290   0.0137   H         1 1      0.0000
    34 H15B     3.7651  -2.7310  -0.3415   H         1 1      0.0000
@<TRIPOS>BOND
     1     1     2    1
     2     1    15    1
     3     1    16    1
     4     1    18    1
     5     2     3    1
     6     2     4    1
     7     2    14    1
     8     4     5    1
     9     4     8    2
    10     5     6    1
    11     5     7    1
    12     5    31    1
    13     8     9    1
    14     8    10    1
    15    10    11    1
    16    10    12    1
    17    10    13    1
    18    15    17    1
    19    18    19   ar
    20    18    20   ar
    21    19    21   ar
    22    19    22    1
    23    20    23   ar
    24    20    24    1
    25    21    25   ar
    26    21    26    1
    27    23    25   ar
    28    23    27    1
    29    25    28    1
    30    28    29   un
    31    28    30   un
    32    31    32    1
    33    31    33    1
    34    31    34    1
@<TRIPOS>SUBSTRUCTURE
     1 1           1 GROUP             0 ****  ****    0  
@<TRIPOS>MOLECULE
Molecule Name_00085
    34    34     1     0     0
SMALL
NO_CHARGES
****
Generated from the CSD

@<TRIPOS>ATOM
     1 C11      0.9487   0.2272   0.7656   C.3       1 1      0.0000
     2 C12      1.7530   0.2564  -0.5713   C.3       1 1      0.0000
     3 H12A     1.6924   1.2646  -0.9869   H         1 1      0.0000
     4 C13      3.1774  -0.1684  -0.3438   C.2       1 1      0.0000
     5 C14      3.4880  -1.6415  -0.2879   C.3       1 1      0.0000
     6 H14B     2.7058  -2.1594  -0.8637   H         1 1      0.0000
     7 H14A     3.3456  -1.9605   0.7555   H         1 1      0.0000
     8 N        4.1343   0.7018  -0.1990   N.pl3     1 1      0.0000
     9 HN       5.0791   0.3383  -0.0434   H         1 1      0.0000
    10 C        4.0052   2.1940  -0.1856   C.3       1 1      0.0000
    11 HC       5.0090   2.6105  -0.0901   H         1 1      0.0000
    12 HB       3.5576   2.5360  -1.1239   H         1 1      0.0000
    13 HA       3.3930   2.4768   0.6717   H         1 1      0.0000
    14 H12B     1.2762  -0.4368  -1.2727   H         1 1      0.0000
    15 O1       1.3031   1.5168   1.4031   O.3       1 1      0.0000
    16 H11      1.3019  -0.6013   1.3921   H         1 1      0.0000
    17 OH1      0.8146   1.6379   2.2603   H         1 1      0.0000
    18 C10     -0.5364   0.0785   0.5037   C.ar      1 1      0.0000
    19 C9      -1.0358  -1.1238  -0.0185   C.ar      1 1      0.0000
    20 C5      -1.4089   1.1485   0.7609   C.ar      1 1      0.0000
    21 C8      -2.3963  -1.2551  -0.3020   C.ar      1 1      0.0000
    22 H9      -0.3704  -1.9628  -0.2015   H         1 1      0.0000
    23 C6      -2.7703   1.0242   0.4908   C.ar      1 1      0.0000
    24 H5      -1.0300   2.0701   1.1904   H         1 1      0.0000
    25 C7      -3.2398  -0.1762  -0.0440   C.ar      1 1      0.0000
    26 H8      -2.8037  -2.1731  -0.7057   H         1 1      0.0000
    27 H6      -3.4628   1.8330   0.6855   H         1 1      0.0000
    28 NO      -4.6777  -0.3089  -0.3401   N.pl3     1 1      0.0000
    29 ON2     -5.3230   0.7532  -0.6690   O.2       1 1      0.0000
    30 ON1     -5.2015  -1.4798  -0.2501   O.2       1 1      0.0000
    31 C15      4.8821  -2.0656  -0.7837   C.3       1 1      0.0000
    32 H15A     5.6840  -1.6058  -0.1938   H         1 1      0.0000
    33 H15C     4.9876  -3.1492  -0.6747   H         1 1      0.0000
    34 H15B     5.0263  -1.8418  -1.8480   H         1 1      0.0000
@<TRIPOS>BOND
     1     1     2    1
     2     1    15    1
     3     1    16    1
     4     1    18    1
     5     2     3    1
     6     2     4    1
     7     2    14    1
     8     4     5    1
     9     4     8    2
    10     5     6    1
    11     5     7    1
    12     5    31    1
    13     8     9    1
    14     8    10    1
    15    10    11    1
    16    10    12    1
    17    10    13    1
    18    15    17    1
    19    18    19   ar
    20    18    20   ar
    21    19    21   ar
    22    19    22    1
    23    20    23   ar
    24    20    24    1
    25    21    25   ar
    26    21    26    1
    27    23    25   ar
    28    23    27    1
    29    25    28    1
    30    28    29   un
    31    28    30   un
    32    31    32    1
    33    31    33    1
    34    31    34    1
@<TRIPOS>SUBSTRUCTURE
     1 1           1 GROUP             0 ****  ****    0  
@<TRIPOS>MOLECULE
Molecule Name_00086
    34    34     1     0     0
SMALL
NO_CHARGES
****
Generated from the CSD

@<TRIPOS>ATOM
     1 C11      1.0727   0.1995  -0.6980   C.3       1 1      0.0000
     2 C12      1.8517   0.3473   0.6460   C.3       1 1      0.0000
     3 H12A     1.5199  -0.4419   1.3242   H         1 1      0.0000
     4 C13      3.3356   0.2915   0.4089   C.2       1 1      0.0000
     5 C14      4.1019  -0.8981   0.9258   C.3       1 1      0.0000
     6 H14B     4.3986  -0.6675   1.9605   H         1 1      0.0000
     7 H14A     5.0408  -0.9484   0.3544   H         1 1      0.0000
     8 N        3.9610   1.2382  -0.2287   N.pl3     1 1      0.0000
     9 HN       4.9727   1.1336  -0.3488   H         1 1      0.0000
    10 C        3.3726   2.5035  -0.7731   C.3       1 1      0.0000
    11 HC       4.1987   3.1741  -1.0134   H         1 1      0.0000
    12 HB       2.8040   2.2868  -1.6827   H         1 1      0.0000
    13 HA       2.7368   2.9438  -0.0038   H         1 1      0.0000
    14 H12B     1.5919   1.3155   1.0874   H         1 1      0.0000
    15 O1       1.6518  -1.0277  -1.2927   O.3       1 1      0.0000
    16 H11      1.2870   1.0581  -1.3465   H         1 1      0.0000
    17 OH1      1.2032  -1.2555  -2.1500   H         1 1      0.0000
    18 C10     -0.4193   0.0981  -0.4534   C.ar      1 1      0.0000
    19 C9      -1.1247   1.2110   0.0275   C.ar      1 1      0.0000
    20 C5      -1.0916  -1.1129  -0.6852   C.ar      1 1      0.0000
    21 C8      -2.4913   1.1145   0.2951   C.ar      1 1      0.0000
    22 H9      -0.6158   2.1568   0.1905   H         1 1      0.0000
    23 C6      -2.4578  -1.2169  -0.4308   C.ar      1 1      0.0000
    24 H5      -0.5544  -1.9676  -1.0832   H         1 1      0.0000
    25 C7      -3.1335  -0.1003   0.0631   C.ar      1 1      0.0000
    26 H8      -3.0557   1.9600   0.6672   H         1 1      0.0000
    27 H6      -2.9985  -2.1379  -0.6065   H         1 1      0.0000
    28 NO      -4.5768  -0.2084   0.3427   N.pl3     1 1      0.0000
    29 ON2     -5.1478  -1.3387   0.1210   O.2       1 1      0.0000
    30 ON1     -5.1793   0.8357   0.7905   O.2       1 1      0.0000
    31 C15      3.3772  -2.2549   0.8704   C.3       1 1      0.0000
    32 H15A     3.1576  -2.5602  -0.1598   H         1 1      0.0000
    33 H15C     4.0244  -3.0254   1.2999   H         1 1      0.0000
    34 H15B     2.4545  -2.2535   1.4639   H         1 1      0.0000
@<TRIPOS>BOND
     1     1     2    1
     2     1    15    1
     3     1    16    1
     4     1    18    1
     5     2     3    1
     6     2     4    1
     7     2    14    1
     8     4     5    1
     9     4     8    2
    10     5     6    1
    11     5     7    1
    12     5    31    1
    13     8     9    1
    14     8    10    1
    15    10    11    1
    16    10    12    1
    17    10    13    1
    18    15    17    1
    19    18    19   ar
    20    18    20   ar
    21    19    21   ar
    22    19    22    1
    23    20    23   ar
    24    20    24    1
    25    21    25   ar
    26    21    26    1
    27    23    25   ar
    28    23    27    1
    29    25    28    1
    30    28    29   un
    31    28    30   un
    32    31    32    1
    33    31    33    1
    34    31    34    1
@<TRIPOS>SUBSTRUCTURE
     1 1           1 GROUP             0 ****  ****    0  
@<TRIPOS>MOLECULE
Molecule Name_00087
    34    34     1     0     0
SMALL
NO_CHARGES
****
Generated from the CSD

@<TRIPOS>ATOM
     1 C11      1.1611   0.9268   1.4374   C.3       1 1      0.0000
     2 C12      2.2231   1.0533   0.3011   C.3       1 1      0.0000
     3 H12A     3.1242   1.5052   0.7216   H         1 1      0.0000
     4 C13      2.5071  -0.2899  -0.3125   C.2       1 1      0.0000
     5 C14      1.6201  -0.7710  -1.4313   C.3       1 1      0.0000
     6 H14B     0.5823  -0.7151  -1.0685   H         1 1      0.0000
     7 H14A     1.8273  -1.8431  -1.5670   H         1 1      0.0000
     8 N        3.4936  -1.0329   0.0979   N.pl3     1 1      0.0000
     9 HN       3.6235  -1.9374  -0.3649   H         1 1      0.0000
    10 C        4.4452  -0.7360   1.2158   C.3       1 1      0.0000
    11 HC       5.0535  -1.6273   1.3759   H         1 1      0.0000
    12 HB       5.0932   0.1013   0.9388   H         1 1      0.0000
    13 HA       3.8628  -0.5075   2.1092   H         1 1      0.0000
    14 H12B     1.8244   1.7250  -0.4667   H         1 1      0.0000
    15 O1       1.1559   2.2763   2.0488   O.3       1 1      0.0000
    16 H11      1.4967   0.1898   2.1775   H         1 1      0.0000
    17 OH1      0.4787   2.3376   2.7740   H         1 1      0.0000
    18 C10     -0.1872   0.5189   0.8787   C.ar      1 1      0.0000
    19 C9      -0.8547  -0.5943   1.4102   C.ar      1 1      0.0000
    20 C5      -0.7576   1.2386  -0.1838   C.ar      1 1      0.0000
    21 C8      -2.0773  -1.0022   0.8739   C.ar      1 1      0.0000
    22 H9      -0.4295  -1.1443   2.2450   H         1 1      0.0000
    23 C6      -1.9825   0.8457  -0.7197   C.ar      1 1      0.0000
    24 H5      -0.2570   2.1165  -0.5790   H         1 1      0.0000
    25 C7      -2.6187  -0.2750  -0.1844   C.ar      1 1      0.0000
    26 H8      -2.6099  -1.8584   1.2677   H         1 1      0.0000
    27 H6      -2.4443   1.3876  -1.5350   H         1 1      0.0000
    28 NO      -3.9101  -0.7000  -0.7543   N.pl3     1 1      0.0000
    29 ON2     -3.9851  -1.8818  -1.2546   O.2       1 1      0.0000
    30 ON1     -4.8846   0.1382  -0.7185   O.2       1 1      0.0000
    31 C15      1.7541  -0.0334  -2.7755   C.3       1 1      0.0000
    32 H15A     2.7664  -0.1163  -3.1891   H         1 1      0.0000
    33 H15C     1.0745  -0.4871  -3.5032   H         1 1      0.0000
    34 H15B     1.4689   1.0230  -2.6958   H         1 1      0.0000
@<TRIPOS>BOND
     1     1     2    1
     2     1    15    1
     3     1    16    1
     4     1    18    1
     5     2     3    1
     6     2     4    1
     7     2    14    1
     8     4     5    1
     9     4     8    2
    10     5     6    1
    11     5     7    1
    12     5    31    1
    13     8     9    1
    14     8    10    1
    15    10    11    1
    16    10    12    1
    17    10    13    1
    18    15    17    1
    19    18    19   ar
    20    18    20   ar
    21    19    21   ar
    22    19    22    1
    23    20    23   ar
    24    20    24    1
    25    21    25   ar
    26    21    26    1
    27    23    25   ar
    28    23    27    1
    29    25    28    1
    30    28    29   un
    31    28    30   un
    32    31    32    1
    33    31    33    1
    34    31    34    1
@<TRIPOS>SUBSTRUCTURE
     1 1           1 GROUP             0 ****  ****    0  
@<TRIPOS>MOLECULE
Molecule Name_00088
    34    34     1     0     0
SMALL
NO_CHARGES
****
Generated from the CSD

@<TRIPOS>ATOM
     1 C11      1.0741   0.0450  -0.5994   C.3       1 1      0.0000
     2 C12      1.8223  -0.0886   0.7635   C.3       1 1      0.0000
     3 H12A     1.6291  -1.0856   1.1654   H         1 1      0.0000
     4 C13      3.2938   0.1669   0.5890   C.2       1 1      0.0000
     5 C14      4.2492  -0.9844   0.7658   C.3       1 1      0.0000
     6 H14B     4.0192  -1.4499   1.7364   H         1 1      0.0000
     7 H14A     5.2553  -0.5528   0.8771   H         1 1      0.0000
     8 N        3.7506   1.3482   0.2892   N.pl3     1 1      0.0000
     9 HN       4.7652   1.4473   0.1901   H         1 1      0.0000
    10 C        2.9579   2.6073   0.1167   C.3       1 1      0.0000
    11 HC       3.6521   3.4458   0.1884   H         1 1      0.0000
    12 HB       2.4810   2.6134  -0.8683   H         1 1      0.0000
    13 HA       2.2173   2.6575   0.9159   H         1 1      0.0000
    14 H12B     1.4062   0.6509   1.4562   H         1 1      0.0000
    15 O1       1.5931  -1.0990  -1.3850   O.3       1 1      0.0000
    16 H11      1.3593   0.9851  -1.0877   H         1 1      0.0000
    17 OH1      1.1558  -1.1482  -2.2763   H         1 1      0.0000
    18 C10     -0.4277   0.0016  -0.4019   C.ar      1 1      0.0000
    19 C9      -1.2335   1.0074  -0.9556   C.ar      1 1      0.0000
    20 C5      -1.0107  -1.0295   0.3526   C.ar      1 1      0.0000
    21 C8      -2.6132   0.9983  -0.7435   C.ar      1 1      0.0000
    22 H9      -0.7924   1.7973  -1.5570   H         1 1      0.0000
    23 C6      -2.3882  -1.0533   0.5618   C.ar      1 1      0.0000
    24 H5      -0.3934  -1.8240   0.7592   H         1 1      0.0000
    25 C7      -3.1660  -0.0321   0.0145   C.ar      1 1      0.0000
    26 H8      -3.2543   1.7644  -1.1605   H         1 1      0.0000
    27 H6      -2.8608  -1.8402   1.1352   H         1 1      0.0000
    28 NO      -4.6225  -0.0480   0.2410   N.pl3     1 1      0.0000
    29 ON2     -5.1466   0.9584   0.8453   O.2       1 1      0.0000
    30 ON1     -5.2821  -1.0691  -0.1783   O.2       1 1      0.0000
    31 C15      4.2515  -2.0481  -0.3468   C.3       1 1      0.0000
    32 H15A     4.4782  -1.6139  -1.3280   H         1 1      0.0000
    33 H15C     5.0320  -2.7855  -0.1368   H         1 1      0.0000
    34 H15B     3.3036  -2.5985  -0.3922   H         1 1      0.0000
@<TRIPOS>BOND
     1     1     2    1
     2     1    15    1
     3     1    16    1
     4     1    18    1
     5     2     3    1
     6     2     4    1
     7     2    14    1
     8     4     5    1
     9     4     8    2
    10     5     6    1
    11     5     7    1
    12     5    31    1
    13     8     9    1
    14     8    10    1
    15    10    11    1
    16    10    12    1
    17    10    13    1
    18    15    17    1
    19    18    19   ar
    20    18    20   ar
    21    19    21   ar
    22    19    22    1
    23    20    23   ar
    24    20    24    1
    25    21    25   ar
    26    21    26    1
    27    23    25   ar
    28    23    27    1
    29    25    28    1
    30    28    29   un
    31    28    30   un
    32    31    32    1
    33    31    33    1
    34    31    34    1
@<TRIPOS>SUBSTRUCTURE
     1 1           1 GROUP             0 ****  ****    0  
@<TRIPOS>MOLECULE
Molecule Name_00089
    34    34     1     0     0
SMALL
NO_CHARGES
****
Generated from the CSD

@<TRIPOS>ATOM
     1 C11      0.9794  -0.5326   0.4050   C.3       1 1      0.0000
     2 C12      1.7530   0.0775  -0.8052   C.3       1 1      0.0000
     3 H12A     1.3806   1.0900  -0.9759   H         1 1      0.0000
     4 C13      3.2348   0.0640  -0.5497   C.2       1 1      0.0000
     5 C14      3.9979  -1.2082  -0.8125   C.3       1 1      0.0000
     6 H14B     4.2877  -1.1984  -1.8744   H         1 1      0.0000
     7 H14A     3.2833  -2.0385  -0.7098   H         1 1      0.0000
     8 N        3.8620   1.1180  -0.1144   N.pl3     1 1      0.0000
     9 HN       4.8709   1.0328   0.0402   H         1 1      0.0000
    10 C        3.2638   2.4455   0.2370   C.3       1 1      0.0000
    11 HC       4.0849   3.1268   0.4642   H         1 1      0.0000
    12 HB       2.6949   2.8328  -0.6138   H         1 1      0.0000
    13 HA       2.6266   2.3126   1.1123   H         1 1      0.0000
    14 H12B     1.5330  -0.5269  -1.6917   H         1 1      0.0000
    15 O1       1.5080   0.2256   1.5629   O.3       1 1      0.0000
    16 H11      1.2373  -1.5935   0.5123   H         1 1      0.0000
    17 OH1      1.0568  -0.0479   2.4053   H         1 1      0.0000
    18 C10     -0.5176  -0.3818   0.2253   C.ar      1 1      0.0000
    19 C9      -1.0611   0.8760  -0.0750   C.ar      1 1      0.0000
    20 C5      -1.3625  -1.4927   0.3812   C.ar      1 1      0.0000
    21 C8      -2.4425   1.0324  -0.2010   C.ar      1 1      0.0000
    22 H9      -0.4127   1.7361  -0.2167   H         1 1      0.0000
    23 C6      -2.7422  -1.3493   0.2475   C.ar      1 1      0.0000
    24 H5      -0.9433  -2.4723   0.5864   H         1 1      0.0000
    25 C7      -3.2594  -0.0843  -0.0349   C.ar      1 1      0.0000
    26 H8      -2.8839   1.9935  -0.4317   H         1 1      0.0000
    27 H6      -3.4128  -2.1916   0.3581   H         1 1      0.0000
    28 NO      -4.7189   0.0741  -0.1679   N.pl3     1 1      0.0000
    29 ON2     -5.1761   0.5004  -1.2912   O.2       1 1      0.0000
    30 ON1     -5.4479  -0.2224   0.8490   O.2       1 1      0.0000
    31 C15      5.2313  -1.4609   0.0730   C.3       1 1      0.0000
    32 H15A     4.9662  -1.5286   1.1349   H         1 1      0.0000
    33 H15C     5.6822  -2.4185  -0.2044   H         1 1      0.0000
    34 H15B     6.0050  -0.6964  -0.0705   H         1 1      0.0000
@<TRIPOS>BOND
     1     1     2    1
     2     1    15    1
     3     1    16    1
     4     1    18    1
     5     2     3    1
     6     2     4    1
     7     2    14    1
     8     4     5    1
     9     4     8    2
    10     5     6    1
    11     5     7    1
    12     5    31    1
    13     8     9    1
    14     8    10    1
    15    10    11    1
    16    10    12    1
    17    10    13    1
    18    15    17    1
    19    18    19   ar
    20    18    20   ar
    21    19    21   ar
    22    19    22    1
    23    20    23   ar
    24    20    24    1
    25    21    25   ar
    26    21    26    1
    27    23    25   ar
    28    23    27    1
    29    25    28    1
    30    28    29   un
    31    28    30   un
    32    31    32    1
    33    31    33    1
    34    31    34    1
@<TRIPOS>SUBSTRUCTURE
     1 1           1 GROUP             0 ****  ****    0  
@<TRIPOS>MOLECULE
Molecule Name_00090
    34    34     1     0     0
SMALL
NO_CHARGES
****
Generated from the CSD

@<TRIPOS>ATOM
     1 C11      0.9323  -0.0160  -0.7681   C.3       1 1      0.0000
     2 C12      1.7437   0.1734   0.5513   C.3       1 1      0.0000
     3 H12A     1.4112  -0.5786   1.2703   H         1 1      0.0000
     4 C13      3.2205   0.0761   0.2854   C.2       1 1      0.0000
     5 C14      3.8564  -1.2893   0.2512   C.3       1 1      0.0000
     6 H14B     3.7574  -1.6668  -0.7781   H         1 1      0.0000
     7 H14A     3.2305  -1.9506   0.8689   H         1 1      0.0000
     8 N        3.9490   1.1357   0.0842   N.pl3     1 1      0.0000
     9 HN       4.9486   0.9919  -0.0868   H         1 1      0.0000
    10 C        3.4981   2.5636   0.1214   C.3       1 1      0.0000
    11 HC       4.3869   3.1916   0.0458   H         1 1      0.0000
    12 HB       2.8369   2.7660  -0.7269   H         1 1      0.0000
    13 HA       2.9894   2.7371   1.0705   H         1 1      0.0000
    14 H12B     1.5132   1.1650   0.9554   H         1 1      0.0000
    15 O1       1.4488  -1.2974  -1.3032   O.3       1 1      0.0000
    16 H11      1.1682   0.7956  -1.4675   H         1 1      0.0000
    17 OH1      0.9741  -1.5533  -2.1382   H         1 1      0.0000
    18 C10     -0.5574  -0.0414  -0.4915   C.ar      1 1      0.0000
    19 C9      -1.4157   0.7996  -1.2150   C.ar      1 1      0.0000
    20 C5      -1.0762  -0.8873   0.5022   C.ar      1 1      0.0000
    21 C8      -2.7838   0.8131  -0.9380   C.ar      1 1      0.0000
    22 H9      -1.0248   1.4424  -1.9987   H         1 1      0.0000
    23 C6      -2.4419  -0.8888   0.7795   C.ar      1 1      0.0000
    24 H5      -0.4188  -1.5590   1.0446   H         1 1      0.0000
    25 C7      -3.2725  -0.0309   0.0574   C.ar      1 1      0.0000
    26 H8      -3.4647   1.4543  -1.4832   H         1 1      0.0000
    27 H6      -2.8656  -1.5355   1.5369   H         1 1      0.0000
    28 NO      -4.7164  -0.0221   0.3539   N.pl3     1 1      0.0000
    29 ON2     -5.5257  -0.3311  -0.5960   O.2       1 1      0.0000
    30 ON1     -5.0806   0.2959   1.5454   O.2       1 1      0.0000
    31 C15      5.3235  -1.3719   0.7091   C.3       1 1      0.0000
    32 H15A     5.4461  -1.0514   1.7507   H         1 1      0.0000
    33 H15C     5.6586  -2.4120   0.6543   H         1 1      0.0000
    34 H15B     5.9911  -0.7925   0.0593   H         1 1      0.0000
@<TRIPOS>BOND
     1     1     2    1
     2     1    15    1
     3     1    16    1
     4     1    18    1
     5     2     3    1
     6     2     4    1
     7     2    14    1
     8     4     5    1
     9     4     8    2
    10     5     6    1
    11     5     7    1
    12     5    31    1
    13     8     9    1
    14     8    10    1
    15    10    11    1
    16    10    12    1
    17    10    13    1
    18    15    17    1
    19    18    19   ar
    20    18    20   ar
    21    19    21   ar
    22    19    22    1
    23    20    23   ar
    24    20    24    1
    25    21    25   ar
    26    21    26    1
    27    23    25   ar
    28    23    27    1
    29    25    28    1
    30    28    29   un
    31    28    30   un
    32    31    32    1
    33    31    33    1
    34    31    34    1
@<TRIPOS>SUBSTRUCTURE
     1 1           1 GROUP             0 ****  ****    0  
@<TRIPOS>MOLECULE
Molecule Name_00091
    34    34     1     0     0
SMALL
NO_CHARGES
****
Generated from the CSD

@<TRIPOS>ATOM
     1 C11      1.0961  -0.1023  -0.6530   C.3       1 1      0.0000
     2 C12      1.8417  -0.4439   0.6746   C.3       1 1      0.0000
     3 H12A     1.8062  -1.5258   0.8201   H         1 1      0.0000
     4 C13      3.2552   0.0676   0.6368   C.2       1 1      0.0000
     5 C14      4.3806  -0.9327   0.5877   C.3       1 1      0.0000
     6 H14B     4.2178  -1.6439   1.4119   H         1 1      0.0000
     7 H14A     5.3034  -0.3910   0.8441   H         1 1      0.0000
     8 N        3.5203   1.3418   0.6428   N.pl3     1 1      0.0000
     9 HN       4.5070   1.6156   0.6195   H         1 1      0.0000
    10 C        2.5382   2.4694   0.7291   C.3       1 1      0.0000
    11 HC       3.0997   3.3793   0.9459   H         1 1      0.0000
    12 HB       2.0182   2.5824  -0.2271   H         1 1      0.0000
    13 HA       1.8386   2.2527   1.5374   H         1 1      0.0000
    14 H12B     1.3055   0.0347   1.5011   H         1 1      0.0000
    15 O1       1.5328  -1.1775  -1.5740   O.3       1 1      0.0000
    16 H11      1.4405   0.8680  -1.0319   H         1 1      0.0000
    17 OH1      1.0879  -1.0928  -2.4588   H         1 1      0.0000
    18 C10     -0.4041  -0.0698  -0.4413   C.ar      1 1      0.0000
    19 C9      -1.1441   1.0449  -0.8625   C.ar      1 1      0.0000
    20 C5      -1.0502  -1.1419   0.1954   C.ar      1 1      0.0000
    21 C8      -2.5200   1.1016  -0.6341   C.ar      1 1      0.0000
    22 H9      -0.6548   1.8693  -1.3734   H         1 1      0.0000
    23 C6      -2.4250  -1.0995   0.4192   C.ar      1 1      0.0000
    24 H5      -0.4850  -2.0175   0.4977   H         1 1      0.0000
    25 C7      -3.1360   0.0277   0.0057   C.ar      1 1      0.0000
    26 H8      -3.1110   1.9518  -0.9499   H         1 1      0.0000
    27 H6      -2.9457  -1.9157   0.9031   H         1 1      0.0000
    28 NO      -4.5890   0.0810   0.2488   N.pl3     1 1      0.0000
    29 ON2     -5.0480  -0.5372   1.2782   O.2       1 1      0.0000
    30 ON1     -5.3112   0.7420  -0.5849   O.2       1 1      0.0000
    31 C15      4.5648  -1.6901  -0.7395   C.3       1 1      0.0000
    32 H15A     4.7815  -1.0103  -1.5724   H         1 1      0.0000
    33 H15C     5.4194  -2.3675  -0.6507   H         1 1      0.0000
    34 H15B     3.6948  -2.3126  -0.9827   H         1 1      0.0000
@<TRIPOS>BOND
     1     1     2    1
     2     1    15    1
     3     1    16    1
     4     1    18    1
     5     2     3    1
     6     2     4    1
     7     2    14    1
     8     4     5    1
     9     4     8    2
    10     5     6    1
    11     5     7    1
    12     5    31    1
    13     8     9    1
    14     8    10    1
    15    10    11    1
    16    10    12    1
    17    10    13    1
    18    15    17    1
    19    18    19   ar
    20    18    20   ar
    21    19    21   ar
    22    19    22    1
    23    20    23   ar
    24    20    24    1
    25    21    25   ar
    26    21    26    1
    27    23    25   ar
    28    23    27    1
    29    25    28    1
    30    28    29   un
    31    28    30   un
    32    31    32    1
    33    31    33    1
    34    31    34    1
@<TRIPOS>SUBSTRUCTURE
     1 1           1 GROUP             0 ****  ****    0  
@<TRIPOS>MOLECULE
Molecule Name_00092
    34    34     1     0     0
SMALL
NO_CHARGES
****
Generated from the CSD

@<TRIPOS>ATOM
     1 C11      0.9702  -0.7884  -0.2034   C.3       1 1      0.0000
     2 C12      1.7963   0.1908   0.6876   C.3       1 1      0.0000
     3 H12A     1.7377  -0.1536   1.7224   H         1 1      0.0000
     4 C13      3.2188   0.2742   0.2073   C.2       1 1      0.0000
     5 C14      4.1865  -0.7977   0.6369   C.3       1 1      0.0000
     6 H14B     3.7570  -1.7636   0.3298   H         1 1      0.0000
     7 H14A     4.1839  -0.8106   1.7371   H         1 1      0.0000
     8 N        3.6231   1.2409  -0.5646   N.pl3     1 1      0.0000
     9 HN       4.6071   1.2341  -0.8484   H         1 1      0.0000
    10 C        2.8169   2.4045  -1.0541   C.3       1 1      0.0000
    11 HC       3.4994   3.0875  -1.5619   H         1 1      0.0000
    12 HB       2.0568   2.0579  -1.7611   H         1 1      0.0000
    13 HA       2.3622   2.8928  -0.1913   H         1 1      0.0000
    14 H12B     1.3346   1.1821   0.6255   H         1 1      0.0000
    15 O1       1.3296  -2.1215   0.3340   O.3       1 1      0.0000
    16 H11      1.3032  -0.7108  -1.2458   H         1 1      0.0000
    17 OH1      0.8592  -2.8446  -0.1598   H         1 1      0.0000
    18 C10     -0.5122  -0.4875  -0.1121   C.ar      1 1      0.0000
    19 C9      -1.4308  -1.5392   0.0201   C.ar      1 1      0.0000
    20 C5      -0.9686   0.8388  -0.1827   C.ar      1 1      0.0000
    21 C8      -2.8006  -1.2742   0.0630   C.ar      1 1      0.0000
    22 H9      -1.0846  -2.5662   0.0953   H         1 1      0.0000
    23 C6      -2.3335   1.1149  -0.1307   C.ar      1 1      0.0000
    24 H5      -0.2592   1.6566  -0.2573   H         1 1      0.0000
    25 C7      -3.2279   0.0500  -0.0158   C.ar      1 1      0.0000
    26 H8      -3.5276  -2.0699   0.1640   H         1 1      0.0000
    27 H6      -2.7087   2.1290  -0.1780   H         1 1      0.0000
    28 NO      -4.6731   0.3365   0.0301   N.pl3     1 1      0.0000
    29 ON2     -5.0991   1.3741  -0.5981   O.2       1 1      0.0000
    30 ON1     -5.4217  -0.4683   0.6975   O.2       1 1      0.0000
    31 C15      5.6283  -0.6666   0.1141   C.3       1 1      0.0000
    32 H15A     6.1022   0.2641   0.4485   H         1 1      0.0000
    33 H15C     6.2298  -1.4904   0.5097   H         1 1      0.0000
    34 H15B     5.6780  -0.7386  -0.9795   H         1 1      0.0000
@<TRIPOS>BOND
     1     1     2    1
     2     1    15    1
     3     1    16    1
     4     1    18    1
     5     2     3    1
     6     2     4    1
     7     2    14    1
     8     4     5    1
     9     4     8    2
    10     5     6    1
    11     5     7    1
    12     5    31    1
    13     8     9    1
    14     8    10    1
    15    10    11    1
    16    10    12    1
    17    10    13    1
    18    15    17    1
    19    18    19   ar
    20    18    20   ar
    21    19    21   ar
    22    19    22    1
    23    20    23   ar
    24    20    24    1
    25    21    25   ar
    26    21    26    1
    27    23    25   ar
    28    23    27    1
    29    25    28    1
    30    28    29   un
    31    28    30   un
    32    31    32    1
    33    31    33    1
    34    31    34    1
@<TRIPOS>SUBSTRUCTURE
     1 1           1 GROUP             0 ****  ****    0  
@<TRIPOS>MOLECULE
Molecule Name_00093
    34    34     1     0     0
SMALL
NO_CHARGES
****
Generated from the CSD

@<TRIPOS>ATOM
     1 C11      1.0499   0.1847   0.6109   C.3       1 1      0.0000
     2 C12      1.7752   0.3760  -0.7575   C.3       1 1      0.0000
     3 H12A     1.6787   1.4227  -1.0543   H         1 1      0.0000
     4 C13      3.2153  -0.0453  -0.6589   C.2       1 1      0.0000
     5 C14      3.5461  -1.5097  -0.7848   C.3       1 1      0.0000
     6 H14B     4.3908  -1.5916  -1.4859   H         1 1      0.0000
     7 H14A     2.6951  -1.9888  -1.2916   H         1 1      0.0000
     8 N        4.1685   0.8209  -0.4721   N.pl3     1 1      0.0000
     9 HN       5.1250   0.4597  -0.4112   H         1 1      0.0000
    10 C        4.0227   2.2999  -0.2855   C.3       1 1      0.0000
    11 HC       5.0245   2.7317  -0.2822   H         1 1      0.0000
    12 HB       3.4472   2.7234  -1.1145   H         1 1      0.0000
    13 HA       3.5291   2.4771   0.6708   H         1 1      0.0000
    14 H12B     1.2670  -0.2441  -1.5038   H         1 1      0.0000
    15 O1       1.4251   1.4023   1.3670   O.3       1 1      0.0000
    16 H11      1.4485  -0.7013   1.1205   H         1 1      0.0000
    17 OH1      0.9856   1.4190   2.2585   H         1 1      0.0000
    18 C10     -0.4460   0.0388   0.4178   C.ar      1 1      0.0000
    19 C9      -0.9604  -1.1074  -0.2061   C.ar      1 1      0.0000
    20 C5      -1.3148   1.0577   0.8410   C.ar      1 1      0.0000
    21 C8      -2.3334  -1.2313  -0.4257   C.ar      1 1      0.0000
    22 H9      -0.2968  -1.9088  -0.5184   H         1 1      0.0000
    23 C6      -2.6880   0.9393   0.6356   C.ar      1 1      0.0000
    24 H5      -0.9228   1.9331   1.3485   H         1 1      0.0000
    25 C7      -3.1733  -0.2031  -0.0023   C.ar      1 1      0.0000
    26 H8      -2.7524  -2.1064  -0.9056   H         1 1      0.0000
    27 H6      -3.3777   1.7088   0.9576   H         1 1      0.0000
    28 NO      -4.6243  -0.3285  -0.2302   N.pl3     1 1      0.0000
    29 ON2     -5.3000   0.7515  -0.4021   O.2       1 1      0.0000
    30 ON1     -5.1280  -1.5116  -0.2419   O.2       1 1      0.0000
    31 C15      3.8674  -2.2531   0.5241   C.3       1 1      0.0000
    32 H15A     3.0232  -2.2340   1.2238   H         1 1      0.0000
    33 H15C     4.0711  -3.3043   0.2992   H         1 1      0.0000
    34 H15B     4.7662  -1.8568   1.0128   H         1 1      0.0000
@<TRIPOS>BOND
     1     1     2    1
     2     1    15    1
     3     1    16    1
     4     1    18    1
     5     2     3    1
     6     2     4    1
     7     2    14    1
     8     4     5    1
     9     4     8    2
    10     5     6    1
    11     5     7    1
    12     5    31    1
    13     8     9    1
    14     8    10    1
    15    10    11    1
    16    10    12    1
    17    10    13    1
    18    15    17    1
    19    18    19   ar
    20    18    20   ar
    21    19    21   ar
    22    19    22    1
    23    20    23   ar
    24    20    24    1
    25    21    25   ar
    26    21    26    1
    27    23    25   ar
    28    23    27    1
    29    25    28    1
    30    28    29   un
    31    28    30   un
    32    31    32    1
    33    31    33    1
    34    31    34    1
@<TRIPOS>SUBSTRUCTURE
     1 1           1 GROUP             0 ****  ****    0  
@<TRIPOS>MOLECULE
Molecule Name_00094
    34    34     1     0     0
SMALL
NO_CHARGES
****
Generated from the CSD

@<TRIPOS>ATOM
     1 C11      1.3832  -0.2413   1.5746   C.3       1 1      0.0000
     2 C12      2.4109   0.6518   0.8122   C.3       1 1      0.0000
     3 H12A     3.3494   0.6493   1.3708   H         1 1      0.0000
     4 C13      2.5991   0.1608  -0.5966   C.2       1 1      0.0000
     5 C14      3.5312  -0.9985  -0.8353   C.3       1 1      0.0000
     6 H14B     4.4875  -0.7502  -0.3499   H         1 1      0.0000
     7 H14A     3.7457  -1.0213  -1.9143   H         1 1      0.0000
     8 N        1.9776   0.7100  -1.5996   N.pl3     1 1      0.0000
     9 HN       2.1584   0.3246  -2.5311   H         1 1      0.0000
    10 C        1.0525   1.8871  -1.5552   C.3       1 1      0.0000
    11 HC       0.6526   2.0297  -2.5601   H         1 1      0.0000
    12 HB       0.2299   1.6865  -0.8618   H         1 1      0.0000
    13 HA       1.6264   2.7618  -1.2466   H         1 1      0.0000
    14 H12B     2.0236   1.6761   0.7897   H         1 1      0.0000
    15 O1       1.4295   0.2917   2.9562   O.3       1 1      0.0000
    16 H11      1.7249  -1.2838   1.5716   H         1 1      0.0000
    17 OH1      0.7776  -0.1771   3.5422   H         1 1      0.0000
    18 C10      0.0084  -0.1479   0.9440   C.ar      1 1      0.0000
    19 C9      -1.0119   0.5595   1.5967   C.ar      1 1      0.0000
    20 C5      -0.2516  -0.7865  -0.2794   C.ar      1 1      0.0000
    21 C8      -2.2924   0.6157   1.0437   C.ar      1 1      0.0000
    22 H9      -0.8135   1.0728   2.5334   H         1 1      0.0000
    23 C6      -1.5238  -0.7281  -0.8450   C.ar      1 1      0.0000
    24 H5       0.5426  -1.3113  -0.8004   H         1 1      0.0000
    25 C7      -2.5260  -0.0321  -0.1678   C.ar      1 1      0.0000
    26 H8      -3.0951   1.1551   1.5300   H         1 1      0.0000
    27 H6      -1.7468  -1.2078  -1.7893   H         1 1      0.0000
    28 NO      -3.8758   0.0244  -0.7576   N.pl3     1 1      0.0000
    29 ON2     -4.8505  -0.4586  -0.0725   O.2       1 1      0.0000
    30 ON1     -3.9975   0.5525  -1.9236   O.2       1 1      0.0000
    31 C15      3.0393  -2.3793  -0.3657   C.3       1 1      0.0000
    32 H15A     2.0341  -2.6055  -0.7415   H         1 1      0.0000
    33 H15C     3.7076  -3.1512  -0.7589   H         1 1      0.0000
    34 H15B     3.0592  -2.4738   0.7271   H         1 1      0.0000
@<TRIPOS>BOND
     1     1     2    1
     2     1    15    1
     3     1    16    1
     4     1    18    1
     5     2     3    1
     6     2     4    1
     7     2    14    1
     8     4     5    1
     9     4     8    2
    10     5     6    1
    11     5     7    1
    12     5    31    1
    13     8     9    1
    14     8    10    1
    15    10    11    1
    16    10    12    1
    17    10    13    1
    18    15    17    1
    19    18    19   ar
    20    18    20   ar
    21    19    21   ar
    22    19    22    1
    23    20    23   ar
    24    20    24    1
    25    21    25   ar
    26    21    26    1
    27    23    25   ar
    28    23    27    1
    29    25    28    1
    30    28    29   un
    31    28    30   un
    32    31    32    1
    33    31    33    1
    34    31    34    1
@<TRIPOS>SUBSTRUCTURE
     1 1           1 GROUP             0 ****  ****    0  
@<TRIPOS>MOLECULE
Molecule Name_00095
    34    34     1     0     0
SMALL
NO_CHARGES
****
Generated from the CSD

@<TRIPOS>ATOM
     1 C11      1.2257  -0.3987   1.6180   C.3       1 1      0.0000
     2 C12      2.3226   0.3952   0.8422   C.3       1 1      0.0000
     3 H12A     3.2545   0.3368   1.4087   H         1 1      0.0000
     4 C13      2.4829  -0.1447  -0.5522   C.2       1 1      0.0000
     5 C14      3.3254  -1.3773  -0.7533   C.3       1 1      0.0000
     6 H14B     3.0886  -1.7717  -1.7533   H         1 1      0.0000
     7 H14A     2.9606  -2.1351  -0.0438   H         1 1      0.0000
     8 N        1.9123   0.4244  -1.5741   N.pl3     1 1      0.0000
     9 HN       2.0698   0.0026  -2.4941   H         1 1      0.0000
    10 C        1.0794   1.6693  -1.5676   C.3       1 1      0.0000
    11 HC       0.7168   1.8282  -2.5841   H         1 1      0.0000
    12 HB       0.2269   1.5417  -0.8934   H         1 1      0.0000
    13 HA       1.7110   2.5018  -1.2547   H         1 1      0.0000
    14 H12B     2.0134   1.4447   0.7906   H         1 1      0.0000
    15 O1       1.2987   0.1689   2.9846   O.3       1 1      0.0000
    16 H11      1.4905  -1.4629   1.6478   H         1 1      0.0000
    17 OH1      0.6092  -0.2343   3.5763   H         1 1      0.0000
    18 C10     -0.1329  -0.2235   0.9701   C.ar      1 1      0.0000
    19 C9      -1.1042   0.5754   1.5912   C.ar      1 1      0.0000
    20 C5      -0.4284  -0.8771  -0.2372   C.ar      1 1      0.0000
    21 C8      -2.3722   0.7087   1.0230   C.ar      1 1      0.0000
    22 H9      -0.8768   1.1001   2.5149   H         1 1      0.0000
    23 C6      -1.6880  -0.7425  -0.8180   C.ar      1 1      0.0000
    24 H5       0.3295  -1.4737  -0.7344   H         1 1      0.0000
    25 C7      -2.6423   0.0444  -0.1719   C.ar      1 1      0.0000
    26 H8      -3.1374   1.3194   1.4849   H         1 1      0.0000
    27 H6      -1.9374  -1.2322  -1.7505   H         1 1      0.0000
    28 NO      -3.9791   0.1821  -0.7776   N.pl3     1 1      0.0000
    29 ON2     -4.9925  -0.2080  -0.0896   O.2       1 1      0.0000
    30 ON1     -4.0516   0.6832  -1.9596   O.2       1 1      0.0000
    31 C15      4.8464  -1.1986  -0.5987   C.3       1 1      0.0000
    32 H15A     5.1184  -0.8560   0.4070   H         1 1      0.0000
    33 H15C     5.3385  -2.1639  -0.7503   H         1 1      0.0000
    34 H15B     5.2592  -0.5143  -1.3503   H         1 1      0.0000
@<TRIPOS>BOND
     1     1     2    1
     2     1    15    1
     3     1    16    1
     4     1    18    1
     5     2     3    1
     6     2     4    1
     7     2    14    1
     8     4     5    1
     9     4     8    2
    10     5     6    1
    11     5     7    1
    12     5    31    1
    13     8     9    1
    14     8    10    1
    15    10    11    1
    16    10    12    1
    17    10    13    1
    18    15    17    1
    19    18    19   ar
    20    18    20   ar
    21    19    21   ar
    22    19    22    1
    23    20    23   ar
    24    20    24    1
    25    21    25   ar
    26    21    26    1
    27    23    25   ar
    28    23    27    1
    29    25    28    1
    30    28    29   un
    31    28    30   un
    32    31    32    1
    33    31    33    1
    34    31    34    1
@<TRIPOS>SUBSTRUCTURE
     1 1           1 GROUP             0 ****  ****    0  
@<TRIPOS>MOLECULE
Molecule Name_00096
    34    34     1     0     0
SMALL
NO_CHARGES
****
Generated from the CSD

@<TRIPOS>ATOM
     1 C11      1.1092  -0.6944   0.2056   C.3       1 1      0.0000
     2 C12      1.8617   0.6474   0.4674   C.3       1 1      0.0000
     3 H12A     1.8667   0.8344   1.5434   H         1 1      0.0000
     4 C13      3.2550   0.5936  -0.0957   C.2       1 1      0.0000
     5 C14      4.3397  -0.0479   0.7299   C.3       1 1      0.0000
     6 H14B     4.2789   0.3875   1.7390   H         1 1      0.0000
     7 H14A     5.3012   0.2945   0.3188   H         1 1      0.0000
     8 N        3.5364   1.0822  -1.2687   N.pl3     1 1      0.0000
     9 HN       4.5082   1.0130  -1.5847   H         1 1      0.0000
    10 C        2.6013   1.7863  -2.2032   C.3       1 1      0.0000
    11 HC       3.1956   2.1809  -3.0284   H         1 1      0.0000
    12 HB       1.8634   1.0782  -2.5928   H         1 1      0.0000
    13 HA       2.1206   2.5994  -1.6578   H         1 1      0.0000
    14 H12B     1.3044   1.4533  -0.0220   H         1 1      0.0000
    15 O1       1.5241  -1.5443   1.3461   O.3       1 1      0.0000
    16 H11      1.4630  -1.1404  -0.7322   H         1 1      0.0000
    17 OH1      1.0727  -2.4294   1.3150   H         1 1      0.0000
    18 C10     -0.3885  -0.4739   0.1387   C.ar      1 1      0.0000
    19 C9      -1.1176  -0.9634  -0.9550   C.ar      1 1      0.0000
    20 C5      -1.0429   0.2385   1.1568   C.ar      1 1      0.0000
    21 C8      -2.4907  -0.7287  -1.0455   C.ar      1 1      0.0000
    22 H9      -0.6221  -1.5324  -1.7366   H         1 1      0.0000
    23 C6      -2.4151   0.4696   1.0810   C.ar      1 1      0.0000
    24 H5      -0.4866   0.5947   2.0177   H         1 1      0.0000
    25 C7      -3.1150  -0.0134  -0.0255   C.ar      1 1      0.0000
    26 H8      -3.0733  -1.0964  -1.8805   H         1 1      0.0000
    27 H6      -2.9422   1.0113   1.8557   H         1 1      0.0000
    28 NO      -4.5650   0.2368  -0.1146   N.pl3     1 1      0.0000
    29 ON2     -4.9983   0.8989  -1.1278   O.2       1 1      0.0000
    30 ON1     -5.3102  -0.2212   0.8279   O.2       1 1      0.0000
    31 C15      4.3181  -1.5848   0.8117   C.3       1 1      0.0000
    32 H15A     3.8024  -2.0334  -0.0459   H         1 1      0.0000
    33 H15C     5.3459  -1.9595   0.7970   H         1 1      0.0000
    34 H15B     3.8674  -1.9412   1.7463   H         1 1      0.0000
@<TRIPOS>BOND
     1     1     2    1
     2     1    15    1
     3     1    16    1
     4     1    18    1
     5     2     3    1
     6     2     4    1
     7     2    14    1
     8     4     5    1
     9     4     8    2
    10     5     6    1
    11     5     7    1
    12     5    31    1
    13     8     9    1
    14     8    10    1
    15    10    11    1
    16    10    12    1
    17    10    13    1
    18    15    17    1
    19    18    19   ar
    20    18    20   ar
    21    19    21   ar
    22    19    22    1
    23    20    23   ar
    24    20    24    1
    25    21    25   ar
    26    21    26    1
    27    23    25   ar
    28    23    27    1
    29    25    28    1
    30    28    29   un
    31    28    30   un
    32    31    32    1
    33    31    33    1
    34    31    34    1
@<TRIPOS>SUBSTRUCTURE
     1 1           1 GROUP             0 ****  ****    0  
@<TRIPOS>MOLECULE
Molecule Name_00097
    34    34     1     0     0
SMALL
NO_CHARGES
****
Generated from the CSD

@<TRIPOS>ATOM
     1 C11      1.0734  -0.0696  -0.6081   C.3       1 1      0.0000
     2 C12      1.8202   0.0965   0.7520   C.3       1 1      0.0000
     3 H12A     1.6173  -0.7841   1.3653   H         1 1      0.0000
     4 C13      3.2942   0.2927   0.5282   C.2       1 1      0.0000
     5 C14      4.2383  -0.7994   0.9591   C.3       1 1      0.0000
     6 H14B     4.0036  -1.0349   2.0084   H         1 1      0.0000
     7 H14A     5.2485  -0.3635   0.9737   H         1 1      0.0000
     8 N        3.7625   1.3732  -0.0260   N.pl3     1 1      0.0000
     9 HN       4.7780   1.4381  -0.1424   H         1 1      0.0000
    10 C        2.9822   2.5698  -0.4762   C.3       1 1      0.0000
    11 HC       3.6845   3.3965  -0.5916   H         1 1      0.0000
    12 HB       2.5054   2.3610  -1.4389   H         1 1      0.0000
    13 HA       2.2420   2.8037   0.2900   H         1 1      0.0000
    14 H12B     1.4113   0.9756   1.2617   H         1 1      0.0000
    15 O1       1.5812  -1.3646  -1.1182   O.3       1 1      0.0000
    16 H11      1.3678   0.7354  -1.2928   H         1 1      0.0000
    17 OH1      1.1435  -1.6069  -1.9771   H         1 1      0.0000
    18 C10     -0.4287  -0.0536  -0.4093   C.ar      1 1      0.0000
    19 C9      -1.0672   1.1302  -0.0111   C.ar      1 1      0.0000
    20 C5      -1.1783  -1.2257  -0.6003   C.ar      1 1      0.0000
    21 C8      -2.4446   1.1436   0.2148   C.ar      1 1      0.0000
    22 H9      -0.4973   2.0458   0.1195   H         1 1      0.0000
    23 C6      -2.5554  -1.2205  -0.3871   C.ar      1 1      0.0000
    24 H5      -0.6916  -2.1361  -0.9348   H         1 1      0.0000
    25 C7      -3.1645  -0.0344   0.0247   C.ar      1 1      0.0000
    26 H8      -2.9583   2.0453   0.5230   H         1 1      0.0000
    27 H6      -3.1548  -2.1099  -0.5329   H         1 1      0.0000
    28 NO      -4.6196  -0.0265   0.2606   N.pl3     1 1      0.0000
    29 ON2     -5.3375   0.7719  -0.4464   O.2       1 1      0.0000
    30 ON1     -5.0840  -0.8181   1.1612   O.2       1 1      0.0000
    31 C15      4.2302  -2.0840   0.1112   C.3       1 1      0.0000
    32 H15A     4.4611  -1.8814  -0.9415   H         1 1      0.0000
    33 H15C     5.0034  -2.7636   0.4819   H         1 1      0.0000
    34 H15B     3.2769  -2.6217   0.1874   H         1 1      0.0000
@<TRIPOS>BOND
     1     1     2    1
     2     1    15    1
     3     1    16    1
     4     1    18    1
     5     2     3    1
     6     2     4    1
     7     2    14    1
     8     4     5    1
     9     4     8    2
    10     5     6    1
    11     5     7    1
    12     5    31    1
    13     8     9    1
    14     8    10    1
    15    10    11    1
    16    10    12    1
    17    10    13    1
    18    15    17    1
    19    18    19   ar
    20    18    20   ar
    21    19    21   ar
    22    19    22    1
    23    20    23   ar
    24    20    24    1
    25    21    25   ar
    26    21    26    1
    27    23    25   ar
    28    23    27    1
    29    25    28    1
    30    28    29   un
    31    28    30   un
    32    31    32    1
    33    31    33    1
    34    31    34    1
@<TRIPOS>SUBSTRUCTURE
     1 1           1 GROUP             0 ****  ****    0  
@<TRIPOS>MOLECULE
Molecule Name_00098
    34    34     1     0     0
SMALL
NO_CHARGES
****
Generated from the CSD

@<TRIPOS>ATOM
     1 C11      0.9480  -0.4456   0.5413   C.3       1 1      0.0000
     2 C12      1.7321   0.3885  -0.5193   C.3       1 1      0.0000
     3 H12A     1.5049   1.4451  -0.3619   H         1 1      0.0000
     4 C13      3.2077   0.1153  -0.4249   C.2       1 1      0.0000
     5 C14      3.6774  -1.3158  -0.4584   C.3       1 1      0.0000
     6 H14B     3.2785  -1.7660  -1.3803   H         1 1      0.0000
     7 H14A     3.1725  -1.8391   0.3674   H         1 1      0.0000
     8 N        4.0750   1.0799  -0.3190   N.pl3     1 1      0.0000
     9 HN       5.0630   0.8173  -0.2554   H         1 1      0.0000
    10 C        3.7890   2.5474  -0.2302   C.3       1 1      0.0000
    11 HC       4.7306   3.0539  -0.0135   H         1 1      0.0000
    12 HB       3.3945   2.9069  -1.1856   H         1 1      0.0000
    13 HA       3.0755   2.7086   0.5789   H         1 1      0.0000
    14 H12B     1.3737   0.1012  -1.5136   H         1 1      0.0000
    15 O1       1.4202   0.1135   1.8295   O.3       1 1      0.0000
    16 H11      1.2387  -1.5012   0.4707   H         1 1      0.0000
    17 OH1      0.9565  -0.3158   2.5968   H         1 1      0.0000
    18 C10     -0.5480  -0.3087   0.3431   C.ar      1 1      0.0000
    19 C9      -1.4302  -0.9576   1.2196   C.ar      1 1      0.0000
    20 C5      -1.0517   0.4466  -0.7284   C.ar      1 1      0.0000
    21 C8      -2.8090  -0.8712   1.0199   C.ar      1 1      0.0000
    22 H9      -1.0489  -1.5274   2.0624   H         1 1      0.0000
    23 C6      -2.4267   0.5474  -0.9306   C.ar      1 1      0.0000
    24 H5      -0.3728   0.9722  -1.3920   H         1 1      0.0000
    25 C7      -3.2829  -0.1210  -0.0546   C.ar      1 1      0.0000
    26 H8      -3.5083  -1.3640   1.6832   H         1 1      0.0000
    27 H6      -2.8385   1.1279  -1.7461   H         1 1      0.0000
    28 NO      -4.7380  -0.0249  -0.2702   N.pl3     1 1      0.0000
    29 ON2     -5.4513   0.4853   0.6698   O.2       1 1      0.0000
    30 ON1     -5.2075  -0.4590  -1.3858   O.2       1 1      0.0000
    31 C15      5.1980  -1.5386  -0.3728   C.3       1 1      0.0000
    32 H15A     5.6174  -1.1466   0.5616   H         1 1      0.0000
    33 H15C     5.4049  -2.6128  -0.3889   H         1 1      0.0000
    34 H15B     5.7268  -1.1042  -1.2303   H         1 1      0.0000
@<TRIPOS>BOND
     1     1     2    1
     2     1    15    1
     3     1    16    1
     4     1    18    1
     5     2     3    1
     6     2     4    1
     7     2    14    1
     8     4     5    1
     9     4     8    2
    10     5     6    1
    11     5     7    1
    12     5    31    1
    13     8     9    1
    14     8    10    1
    15    10    11    1
    16    10    12    1
    17    10    13    1
    18    15    17    1
    19    18    19   ar
    20    18    20   ar
    21    19    21   ar
    22    19    22    1
    23    20    23   ar
    24    20    24    1
    25    21    25   ar
    26    21    26    1
    27    23    25   ar
    28    23    27    1
    29    25    28    1
    30    28    29   un
    31    28    30   un
    32    31    32    1
    33    31    33    1
    34    31    34    1
@<TRIPOS>SUBSTRUCTURE
     1 1           1 GROUP             0 ****  ****    0  
@<TRIPOS>MOLECULE
Molecule Name_00099
    34    34     1     0     0
SMALL
NO_CHARGES
****
Generated from the CSD

@<TRIPOS>ATOM
     1 C11      0.9568  -0.7417   0.2110   C.3       1 1      0.0000
     2 C12      1.7585   0.5966   0.1728   C.3       1 1      0.0000
     3 H12A     1.6153   1.1104   1.1259   H         1 1      0.0000
     4 C13      3.2129   0.3368  -0.1076   C.2       1 1      0.0000
     5 C14      3.9362  -0.6826   0.7334   C.3       1 1      0.0000
     6 H14B     3.4228  -1.6454   0.5879   H         1 1      0.0000
     7 H14A     3.7625  -0.4123   1.7858   H         1 1      0.0000
     8 N        3.8487   0.9662  -1.0529   N.pl3     1 1      0.0000
     9 HN       4.8391   0.7398  -1.1829   H         1 1      0.0000
    10 C        3.3053   2.0322  -1.9538   C.3       1 1      0.0000
    11 HC       4.1401   2.4332  -2.5303   H         1 1      0.0000
    12 HB       2.5667   1.6003  -2.6361   H         1 1      0.0000
    13 HA       2.8626   2.8120  -1.3328   H         1 1      0.0000
    14 H12B     1.3424   1.2221  -0.6242   H         1 1      0.0000
    15 O1       1.3937  -1.3628   1.4832   O.3       1 1      0.0000
    16 H11      1.2580  -1.3778  -0.6305   H         1 1      0.0000
    17 OH1      0.9158  -2.2191   1.6455   H         1 1      0.0000
    18 C10     -0.5352  -0.4836   0.1538   C.ar      1 1      0.0000
    19 C9      -1.4302  -1.5636   0.1423   C.ar      1 1      0.0000
    20 C5      -1.0217   0.8323   0.0892   C.ar      1 1      0.0000
    21 C8      -2.8042  -1.3363   0.0476   C.ar      1 1      0.0000
    22 H9      -1.0628  -2.5836   0.2119   H         1 1      0.0000
    23 C6      -2.3922   1.0703   0.0046   C.ar      1 1      0.0000
    24 H5      -0.3338   1.6707   0.1256   H         1 1      0.0000
    25 C7      -3.2608  -0.0215  -0.0221   C.ar      1 1      0.0000
    26 H8      -3.5131  -2.1543   0.0364   H         1 1      0.0000
    27 H6      -2.7910   2.0755  -0.0410   H         1 1      0.0000
    28 NO      -4.7107   0.2252  -0.1210   N.pl3     1 1      0.0000
    29 ON2     -5.3350  -0.2651  -1.1322   O.2       1 1      0.0000
    30 ON1     -5.2646   0.9181   0.8099   O.2       1 1      0.0000
    31 C15      5.4447  -0.8393   0.4709   C.3       1 1      0.0000
    32 H15A     5.9921   0.0921   0.6590   H         1 1      0.0000
    33 H15C     5.8516  -1.5914   1.1534   H         1 1      0.0000
    34 H15B     5.6510  -1.1944  -0.5465   H         1 1      0.0000
@<TRIPOS>BOND
     1     1     2    1
     2     1    15    1
     3     1    16    1
     4     1    18    1
     5     2     3    1
     6     2     4    1
     7     2    14    1
     8     4     5    1
     9     4     8    2
    10     5     6    1
    11     5     7    1
    12     5    31    1
    13     8     9    1
    14     8    10    1
    15    10    11    1
    16    10    12    1
    17    10    13    1
    18    15    17    1
    19    18    19   ar
    20    18    20   ar
    21    19    21   ar
    22    19    22    1
    23    20    23   ar
    24    20    24    1
    25    21    25   ar
    26    21    26    1
    27    23    25   ar
    28    23    27    1
    29    25    28    1
    30    28    29   un
    31    28    30   un
    32    31    32    1
    33    31    33    1
    34    31    34    1
@<TRIPOS>SUBSTRUCTURE
     1 1           1 GROUP             0 ****  ****    0  
@<TRIPOS>MOLECULE
Molecule Name_00100
    34    34     1     0     0
SMALL
NO_CHARGES
****
Generated from the CSD

@<TRIPOS>ATOM
     1 C11      0.9328  -0.0689  -0.7746   C.3       1 1      0.0000
     2 C12      1.7410   0.2351   0.5252   C.3       1 1      0.0000
     3 H12A     1.3976  -0.4427   1.3099   H         1 1      0.0000
     4 C13      3.2178   0.0979   0.2769   C.2       1 1      0.0000
     5 C14      3.8389  -1.2712   0.3740   C.3       1 1      0.0000
     6 H14B     3.7400  -1.7425  -0.6158   H         1 1      0.0000
     7 H14A     3.2036  -1.8651   1.0480   H         1 1      0.0000
     8 N        3.9584   1.1263  -0.0193   N.pl3     1 1      0.0000
     9 HN       4.9571   0.9568  -0.1711   H         1 1      0.0000
    10 C        3.5229   2.5560  -0.1184   C.3       1 1      0.0000
    11 HC       4.4186   3.1649  -0.2481   H         1 1      0.0000
    12 HB       2.8672   2.6847  -0.9851   H         1 1      0.0000
    13 HA       3.0123   2.8231   0.8077   H         1 1      0.0000
    14 H12B     1.5197   1.2626   0.8333   H         1 1      0.0000
    15 O1       1.4376  -1.4001  -1.1847   O.3       1 1      0.0000
    16 H11      1.1803   0.6710  -1.5459   H         1 1      0.0000
    17 OH1      0.9634  -1.7284  -1.9943   H         1 1      0.0000
    18 C10     -0.5581  -0.0527  -0.5043   C.ar      1 1      0.0000
    19 C9      -1.1968   1.1555  -0.1886   C.ar      1 1      0.0000
    20 C5      -1.2959  -1.2469  -0.5466   C.ar      1 1      0.0000
    21 C8      -2.5619   1.1732   0.1028   C.ar      1 1      0.0000
    22 H9      -0.6370   2.0864  -0.1732   H         1 1      0.0000
    23 C6      -2.6611  -1.2386  -0.2672   C.ar      1 1      0.0000
    24 H5      -0.8103  -2.1789  -0.8173   H         1 1      0.0000
    25 C7      -3.2698  -0.0264   0.0605   C.ar      1 1      0.0000
    26 H8      -3.0754   2.0936   0.3495   H         1 1      0.0000
    27 H6      -3.2515  -2.1452  -0.2986   H         1 1      0.0000
    28 NO      -4.7118  -0.0142   0.3660   N.pl3     1 1      0.0000
    29 ON2     -5.4764   0.7044  -0.3768   O.2       1 1      0.0000
    30 ON1     -5.1189  -0.7223   1.3592   O.2       1 1      0.0000
    31 C15      5.3033  -1.3257   0.8450   C.3       1 1      0.0000
    32 H15A     5.4253  -0.9101   1.8525   H         1 1      0.0000
    33 H15C     5.6273  -2.3698   0.8897   H         1 1      0.0000
    34 H15B     5.9796  -0.8168   0.1470   H         1 1      0.0000
@<TRIPOS>BOND
     1     1     2    1
     2     1    15    1
     3     1    16    1
     4     1    18    1
     5     2     3    1
     6     2     4    1
     7     2    14    1
     8     4     5    1
     9     4     8    2
    10     5     6    1
    11     5     7    1
    12     5    31    1
    13     8     9    1
    14     8    10    1
    15    10    11    1
    16    10    12    1
    17    10    13    1
    18    15    17    1
    19    18    19   ar
    20    18    20   ar
    21    19    21   ar
    22    19    22    1
    23    20    23   ar
    24    20    24    1
    25    21    25   ar
    26    21    26    1
    27    23    25   ar
    28    23    27    1
    29    25    28    1
    30    28    29   un
    31    28    30   un
    32    31    32    1
    33    31    33    1
    34    31    34    1
@<TRIPOS>SUBSTRUCTURE
     1 1           1 GROUP             0 ****  ****    0  
@<TRIPOS>MOLECULE
Molecule Name_00101
    34    34     1     0     0
SMALL
NO_CHARGES
****
Generated from the CSD

@<TRIPOS>ATOM
     1 C11      0.9675  -0.4462   0.7066   C.3       1 1      0.0000
     2 C12      1.7950  -0.0026  -0.5398   C.3       1 1      0.0000
     3 H12A     1.4392   0.9802  -0.8566   H         1 1      0.0000
     4 C13      3.2651   0.0118  -0.2238   C.2       1 1      0.0000
     5 C14      4.0265  -1.2867  -0.2864   C.3       1 1      0.0000
     6 H14B     3.2893  -2.0991  -0.1947   H         1 1      0.0000
     7 H14A     4.6414  -1.3428   0.6244   H         1 1      0.0000
     8 N        3.8838   1.1113   0.0958   N.pl3     1 1      0.0000
     9 HN       4.8848   1.0432   0.3018   H         1 1      0.0000
    10 C        3.2841   2.4756   0.2458   C.3       1 1      0.0000
    11 HC       4.1014   3.1776   0.4164   H         1 1      0.0000
    12 HB       2.7541   2.7507  -0.6713   H         1 1      0.0000
    13 HA       2.6103   2.4607   1.1035   H         1 1      0.0000
    14 H12B     1.6056  -0.7170  -1.3482   H         1 1      0.0000
    15 O1       1.4557   0.4550   1.7764   O.3       1 1      0.0000
    16 H11      1.2111  -1.4849   0.9621   H         1 1      0.0000
    17 OH1      0.9683   0.2958   2.6280   H         1 1      0.0000
    18 C10     -0.5196  -0.3144   0.4470   C.ar      1 1      0.0000
    19 C9      -1.3697  -1.4029   0.6921   C.ar      1 1      0.0000
    20 C5      -1.0439   0.8860  -0.0594   C.ar      1 1      0.0000
    21 C8      -2.7346  -1.3041   0.4165   C.ar      1 1      0.0000
    22 H9      -0.9750  -2.3281   1.1024   H         1 1      0.0000
    23 C6      -2.4065   0.9983  -0.3285   C.ar      1 1      0.0000
    24 H5      -0.3933   1.7388  -0.2241   H         1 1      0.0000
    25 C7      -3.2286  -0.1043  -0.0918   C.ar      1 1      0.0000
    26 H8      -3.4092  -2.1312   0.5971   H         1 1      0.0000
    27 H6      -2.8344   1.9147  -0.7140   H         1 1      0.0000
    28 NO      -4.6692   0.0068  -0.3839   N.pl3     1 1      0.0000
    29 ON2     -5.4931  -0.1616   0.5884   O.2       1 1      0.0000
    30 ON1     -5.0159   0.2640  -1.5952   O.2       1 1      0.0000
    31 C15      4.9057  -1.5045  -1.5309   C.3       1 1      0.0000
    32 H15A     5.6854  -0.7385  -1.6207   H         1 1      0.0000
    33 H15C     5.4150  -2.4691  -1.4462   H         1 1      0.0000
    34 H15B     4.3122  -1.5428  -2.4528   H         1 1      0.0000
@<TRIPOS>BOND
     1     1     2    1
     2     1    15    1
     3     1    16    1
     4     1    18    1
     5     2     3    1
     6     2     4    1
     7     2    14    1
     8     4     5    1
     9     4     8    2
    10     5     6    1
    11     5     7    1
    12     5    31    1
    13     8     9    1
    14     8    10    1
    15    10    11    1
    16    10    12    1
    17    10    13    1
    18    15    17    1
    19    18    19   ar
    20    18    20   ar
    21    19    21   ar
    22    19    22    1
    23    20    23   ar
    24    20    24    1
    25    21    25   ar
    26    21    26    1
    27    23    25   ar
    28    23    27    1
    29    25    28    1
    30    28    29   un
    31    28    30   un
    32    31    32    1
    33    31    33    1
    34    31    34    1
@<TRIPOS>SUBSTRUCTURE
     1 1           1 GROUP             0 ****  ****    0  
@<TRIPOS>MOLECULE
Molecule Name_00102
    34    34     1     0     0
SMALL
NO_CHARGES
****
Generated from the CSD

@<TRIPOS>ATOM
     1 C11      1.0847  -0.0743   0.8339   C.3       1 1      0.0000
     2 C12      1.8697   0.6255  -0.3190   C.3       1 1      0.0000
     3 H12A     1.7717   1.7063  -0.1949   H         1 1      0.0000
     4 C13      3.3097   0.1926  -0.3204   C.2       1 1      0.0000
     5 C14      3.6169  -1.2822  -0.3411   C.3       1 1      0.0000
     6 H14B     3.6420  -1.6223   0.7055   H         1 1      0.0000
     7 H14A     4.6476  -1.3904  -0.7108   H         1 1      0.0000
     8 N        4.2824   1.0573  -0.3072   N.pl3     1 1      0.0000
     9 HN       5.2378   0.6882  -0.3052   H         1 1      0.0000
    10 C        4.1653   2.5492  -0.2456   C.3       1 1      0.0000
    11 HC       5.1699   2.9531  -0.1123   H         1 1      0.0000
    12 HB       3.7429   2.9271  -1.1817   H         1 1      0.0000
    13 HA       3.5353   2.8080   0.6064   H         1 1      0.0000
    14 H12B     1.4057   0.3424  -1.2699   H         1 1      0.0000
    15 O1       1.4122   0.7531   2.0185   O.3       1 1      0.0000
    16 H11      1.4690  -1.0916   0.9791   H         1 1      0.0000
    17 OH1      0.9323   0.4272   2.8257   H         1 1      0.0000
    18 C10     -0.3991  -0.1224   0.5305   C.ar      1 1      0.0000
    19 C9      -1.0894  -1.3405   0.6150   C.ar      1 1      0.0000
    20 C5      -1.0783   1.0443   0.1433   C.ar      1 1      0.0000
    21 C8      -2.4473  -1.4019   0.2969   C.ar      1 1      0.0000
    22 H9      -0.5757  -2.2434   0.9329   H         1 1      0.0000
    23 C6      -2.4360   0.9957  -0.1667   C.ar      1 1      0.0000
    24 H5      -0.5535   1.9933   0.1035   H         1 1      0.0000
    25 C7      -3.0963  -0.2314  -0.0910   C.ar      1 1      0.0000
    26 H8      -2.9999  -2.3309   0.3545   H         1 1      0.0000
    27 H6      -2.9819   1.8823  -0.4624   H         1 1      0.0000
    28 NO      -4.5304  -0.2894  -0.4271   N.pl3     1 1      0.0000
    29 ON2     -5.1080   0.8028  -0.7823   O.2       1 1      0.0000
    30 ON1     -5.1188  -1.4297  -0.3433   O.2       1 1      0.0000
    31 C15      2.6650  -2.1674  -1.1652   C.3       1 1      0.0000
    32 H15A     2.6585  -1.8858  -2.2251   H         1 1      0.0000
    33 H15C     3.0055  -3.2059  -1.1136   H         1 1      0.0000
    34 H15B     1.6421  -2.1525  -0.7689   H         1 1      0.0000
@<TRIPOS>BOND
     1     1     2    1
     2     1    15    1
     3     1    16    1
     4     1    18    1
     5     2     3    1
     6     2     4    1
     7     2    14    1
     8     4     5    1
     9     4     8    2
    10     5     6    1
    11     5     7    1
    12     5    31    1
    13     8     9    1
    14     8    10    1
    15    10    11    1
    16    10    12    1
    17    10    13    1
    18    15    17    1
    19    18    19   ar
    20    18    20   ar
    21    19    21   ar
    22    19    22    1
    23    20    23   ar
    24    20    24    1
    25    21    25   ar
    26    21    26    1
    27    23    25   ar
    28    23    27    1
    29    25    28    1
    30    28    29   un
    31    28    30   un
    32    31    32    1
    33    31    33    1
    34    31    34    1
@<TRIPOS>SUBSTRUCTURE
     1 1           1 GROUP             0 ****  ****    0  
@<TRIPOS>MOLECULE
Molecule Name_00103
    34    34     1     0     0
SMALL
NO_CHARGES
****
Generated from the CSD

@<TRIPOS>ATOM
     1 C11      1.0225  -0.5778   0.5095   C.3       1 1      0.0000
     2 C12      1.8307   0.3465  -0.4536   C.3       1 1      0.0000
     3 H12A     1.4445   1.3637  -0.3584   H         1 1      0.0000
     4 C13      3.3012   0.2773  -0.1468   C.2       1 1      0.0000
     5 C14      3.9571  -1.0769  -0.0729   C.3       1 1      0.0000
     6 H14B     3.3588  -1.6891   0.6193   H         1 1      0.0000
     7 H14A     4.9292  -0.9364   0.4232   H         1 1      0.0000
     8 N        4.0085   1.3519   0.0505   N.pl3     1 1      0.0000
     9 HN       5.0035   1.2266   0.2586   H         1 1      0.0000
    10 C        3.5200   2.7678   0.0557   C.3       1 1      0.0000
    11 HC       4.3455   3.3997   0.3865   H         1 1      0.0000
    12 HB       3.2207   3.0606  -0.9554   H         1 1      0.0000
    13 HA       2.6839   2.8386   0.7526   H         1 1      0.0000
    14 H12B     1.6587   0.0051  -1.4801   H         1 1      0.0000
    15 O1       1.4872  -0.1580   1.8522   O.3       1 1      0.0000
    16 H11      1.2991  -1.6252   0.3362   H         1 1      0.0000
    17 OH1      1.0085  -0.6550   2.5677   H         1 1      0.0000
    18 C10     -0.4690  -0.3990   0.3106   C.ar      1 1      0.0000
    19 C9      -1.3705  -1.1010   1.1243   C.ar      1 1      0.0000
    20 C5      -0.9494   0.4493  -0.7003   C.ar      1 1      0.0000
    21 C8      -2.7457  -0.9744   0.9208   C.ar      1 1      0.0000
    22 H9      -1.0072  -1.7437   1.9212   H         1 1      0.0000
    23 C6      -2.3205   0.5905  -0.9051   C.ar      1 1      0.0000
    24 H5      -0.2552   1.0149  -1.3134   H         1 1      0.0000
    25 C7      -3.1964  -0.1315  -0.0934   C.ar      1 1      0.0000
    26 H8      -3.4596  -1.5069   1.5360   H         1 1      0.0000
    27 H6      -2.7145   1.2422  -1.6743   H         1 1      0.0000
    28 NO      -4.6474   0.0074  -0.3126   N.pl3     1 1      0.0000
    29 ON2     -5.0802   1.1271  -0.7726   O.2       1 1      0.0000
    30 ON1     -5.3944  -1.0001  -0.0288   O.2       1 1      0.0000
    31 C15      4.1485  -1.8178  -1.4084   C.3       1 1      0.0000
    32 H15A     4.7857  -1.2551  -2.1012   H         1 1      0.0000
    33 H15C     4.6480  -2.7730  -1.2206   H         1 1      0.0000
    34 H15B     3.1911  -2.0534  -1.8895   H         1 1      0.0000
@<TRIPOS>BOND
     1     1     2    1
     2     1    15    1
     3     1    16    1
     4     1    18    1
     5     2     3    1
     6     2     4    1
     7     2    14    1
     8     4     5    1
     9     4     8    2
    10     5     6    1
    11     5     7    1
    12     5    31    1
    13     8     9    1
    14     8    10    1
    15    10    11    1
    16    10    12    1
    17    10    13    1
    18    15    17    1
    19    18    19   ar
    20    18    20   ar
    21    19    21   ar
    22    19    22    1
    23    20    23   ar
    24    20    24    1
    25    21    25   ar
    26    21    26    1
    27    23    25   ar
    28    23    27    1
    29    25    28    1
    30    28    29   un
    31    28    30   un
    32    31    32    1
    33    31    33    1
    34    31    34    1
@<TRIPOS>SUBSTRUCTURE
     1 1           1 GROUP             0 ****  ****    0  
@<TRIPOS>MOLECULE
Molecule Name_00104
    34    34     1     0     0
SMALL
NO_CHARGES
****
Generated from the CSD

@<TRIPOS>ATOM
     1 C11      1.0721  -0.3093   0.6840   C.3       1 1      0.0000
     2 C12      1.8514   0.1128  -0.6004   C.3       1 1      0.0000
     3 H12A     1.4461   1.0645  -0.9511   H         1 1      0.0000
     4 C13      3.3261   0.2037  -0.3212   C.2       1 1      0.0000
     5 C14      4.0203  -0.9940   0.2733   C.3       1 1      0.0000
     6 H14B     3.8981  -0.9300   1.3654   H         1 1      0.0000
     7 H14A     5.0975  -0.8651   0.0893   H         1 1      0.0000
     8 N        4.0051   1.2827  -0.5829   N.pl3     1 1      0.0000
     9 HN       5.0052   1.2725  -0.3622   H         1 1      0.0000
    10 C        3.4774   2.5722  -1.1327   C.3       1 1      0.0000
    11 HC       4.2881   3.3013  -1.0979   H         1 1      0.0000
    12 HB       3.1601   2.4307  -2.1704   H         1 1      0.0000
    13 HA       2.6466   2.8971  -0.5050   H         1 1      0.0000
    14 H12B     1.6751  -0.6443  -1.3720   H         1 1      0.0000
    15 O1       1.5423   0.6607   1.7004   O.3       1 1      0.0000
    16 H11      1.3679  -1.3235   0.9799   H         1 1      0.0000
    17 OH1      1.0812   0.5193   2.5696   H         1 1      0.0000
    18 C10     -0.4248  -0.2554   0.4542   C.ar      1 1      0.0000
    19 C9      -1.1264  -1.4307   0.1482   C.ar      1 1      0.0000
    20 C5      -1.1057   0.9709   0.5245   C.ar      1 1      0.0000
    21 C8      -2.4982  -1.3838  -0.1061   C.ar      1 1      0.0000
    22 H9      -0.6105  -2.3860   0.1114   H         1 1      0.0000
    23 C6      -2.4768   1.0270   0.2823   C.ar      1 1      0.0000
    24 H5      -0.5708   1.8775   0.7880   H         1 1      0.0000
    25 C7      -3.1491  -0.1536  -0.0366   C.ar      1 1      0.0000
    26 H8      -3.0598  -2.2780  -0.3447   H         1 1      0.0000
    27 H6      -3.0241   1.9593   0.3357   H         1 1      0.0000
    28 NO      -4.5978  -0.0976  -0.3029   N.pl3     1 1      0.0000
    29 ON2     -5.2830   0.8110   0.2951   O.2       1 1      0.0000
    30 ON1     -5.0904  -0.9627  -1.1168   O.2       1 1      0.0000
    31 C15      3.5598  -2.3725  -0.2334   C.3       1 1      0.0000
    32 H15A     3.7175  -2.4858  -1.3128   H         1 1      0.0000
    33 H15C     4.1503  -3.1514   0.2582   H         1 1      0.0000
    34 H15B     2.5096  -2.5722   0.0132   H         1 1      0.0000
@<TRIPOS>BOND
     1     1     2    1
     2     1    15    1
     3     1    16    1
     4     1    18    1
     5     2     3    1
     6     2     4    1
     7     2    14    1
     8     4     5    1
     9     4     8    2
    10     5     6    1
    11     5     7    1
    12     5    31    1
    13     8     9    1
    14     8    10    1
    15    10    11    1
    16    10    12    1
    17    10    13    1
    18    15    17    1
    19    18    19   ar
    20    18    20   ar
    21    19    21   ar
    22    19    22    1
    23    20    23   ar
    24    20    24    1
    25    21    25   ar
    26    21    26    1
    27    23    25   ar
    28    23    27    1
    29    25    28    1
    30    28    29   un
    31    28    30   un
    32    31    32    1
    33    31    33    1
    34    31    34    1
@<TRIPOS>SUBSTRUCTURE
     1 1           1 GROUP             0 ****  ****    0  
@<TRIPOS>MOLECULE
Molecule Name_00105
    34    34     1     0     0
SMALL
NO_CHARGES
****
Generated from the CSD

@<TRIPOS>ATOM
     1 C11      1.1100  -0.7084  -0.1339   C.3       1 1      0.0000
     2 C12      1.8518   0.3639   0.7233   C.3       1 1      0.0000
     3 H12A     1.8371   0.0404   1.7664   H         1 1      0.0000
     4 C13      3.2550   0.5669   0.2222   C.2       1 1      0.0000
     5 C14      4.3279  -0.3847   0.6839   C.3       1 1      0.0000
     6 H14B     4.2475  -0.4564   1.7794   H         1 1      0.0000
     7 H14A     5.2950   0.1035   0.4909   H         1 1      0.0000
     8 N        3.5547   1.5349  -0.5945   N.pl3     1 1      0.0000
     9 HN       4.5322   1.6133  -0.8901   H         1 1      0.0000
    10 C        2.6330   2.5911  -1.1220   C.3       1 1      0.0000
    11 HC       3.2399   3.3159  -1.6664   H         1 1      0.0000
    12 HB       1.9052   2.1411  -1.8043   H         1 1      0.0000
    13 HA       2.1392   3.0686  -0.2747   H         1 1      0.0000
    14 H12B     1.2996   1.3066   0.6450   H         1 1      0.0000
    15 O1       1.5085  -1.9861   0.5015   O.3       1 1      0.0000
    16 H11      1.4821  -0.6798  -1.1656   H         1 1      0.0000
    17 OH1      1.0617  -2.7581   0.0628   H         1 1      0.0000
    18 C10     -0.3873  -0.4756  -0.1194   C.ar      1 1      0.0000
    19 C9      -0.9243   0.6512  -0.7592   C.ar      1 1      0.0000
    20 C5      -1.2343  -1.3722   0.5520   C.ar      1 1      0.0000
    21 C8      -2.2980   0.8959  -0.7152   C.ar      1 1      0.0000
    22 H9      -0.2781   1.3388  -1.2974   H         1 1      0.0000
    23 C6      -2.6082  -1.1425   0.5932   C.ar      1 1      0.0000
    24 H5      -0.8252  -2.2593   1.0245   H         1 1      0.0000
    25 C7      -3.1159  -0.0056  -0.0368   C.ar      1 1      0.0000
    26 H8      -2.7343   1.7591  -1.2012   H         1 1      0.0000
    27 H6      -3.2814  -1.8220   1.0999   H         1 1      0.0000
    28 NO      -4.5675   0.2465   0.0123   N.pl3     1 1      0.0000
    29 ON2     -4.9683   1.3403   0.5559   O.2       1 1      0.0000
    30 ON1     -5.3467  -0.6442  -0.4907   O.2       1 1      0.0000
    31 C15      4.3117  -1.7900   0.0564   C.3       1 1      0.0000
    32 H15A     3.7373  -1.8150  -0.8775   H         1 1      0.0000
    33 H15C     5.3359  -2.0843  -0.1916   H         1 1      0.0000
    34 H15B     3.9272  -2.5469   0.7513   H         1 1      0.0000
@<TRIPOS>BOND
     1     1     2    1
     2     1    15    1
     3     1    16    1
     4     1    18    1
     5     2     3    1
     6     2     4    1
     7     2    14    1
     8     4     5    1
     9     4     8    2
    10     5     6    1
    11     5     7    1
    12     5    31    1
    13     8     9    1
    14     8    10    1
    15    10    11    1
    16    10    12    1
    17    10    13    1
    18    15    17    1
    19    18    19   ar
    20    18    20   ar
    21    19    21   ar
    22    19    22    1
    23    20    23   ar
    24    20    24    1
    25    21    25   ar
    26    21    26    1
    27    23    25   ar
    28    23    27    1
    29    25    28    1
    30    28    29   un
    31    28    30   un
    32    31    32    1
    33    31    33    1
    34    31    34    1
@<TRIPOS>SUBSTRUCTURE
     1 1           1 GROUP             0 ****  ****    0  
@<TRIPOS>MOLECULE
Molecule Name_00106
    34    34     1     0     0
SMALL
NO_CHARGES
****
Generated from the CSD

@<TRIPOS>ATOM
     1 C11      1.1567   1.6709   0.5158   C.3       1 1      0.0000
     2 C12      2.2258   1.1896  -0.5139   C.3       1 1      0.0000
     3 H12A     3.1209   1.8035  -0.3924   H         1 1      0.0000
     4 C13      2.5229  -0.2726  -0.3271   C.2       1 1      0.0000
     5 C14      2.0783  -1.2386  -1.3943   C.3       1 1      0.0000
     6 H14B     2.5198  -0.8981  -2.3434   H         1 1      0.0000
     7 H14A     0.9919  -1.1097  -1.5118   H         1 1      0.0000
     8 N        3.1512  -0.7125   0.7244   N.pl3     1 1      0.0000
     9 HN       3.3146  -1.7218   0.7849   H         1 1      0.0000
    10 C        3.6276   0.0911   1.8952   C.3       1 1      0.0000
    11 HC       4.3569  -0.5144   2.4353   H         1 1      0.0000
    12 HB       4.1070   1.0100   1.5440   H         1 1      0.0000
    13 HA       2.7693   0.3102   2.5317   H         1 1      0.0000
    14 H12B     1.8281   1.3522  -1.5215   H         1 1      0.0000
    15 O1       1.0882   3.1314   0.2764   O.3       1 1      0.0000
    16 H11      1.5139   1.4825   1.5358   H         1 1      0.0000
    17 OH1      0.4007   3.5566   0.8548   H         1 1      0.0000
    18 C10     -0.1668   0.9667   0.2949   C.ar      1 1      0.0000
    19 C9      -1.2480   1.6703  -0.2560   C.ar      1 1      0.0000
    20 C5      -0.3191  -0.3804   0.6615   C.ar      1 1      0.0000
    21 C8      -2.4828   1.0413  -0.4243   C.ar      1 1      0.0000
    22 H9      -1.1326   2.7067  -0.5604   H         1 1      0.0000
    23 C6      -1.5447  -1.0204   0.4883   C.ar      1 1      0.0000
    24 H5       0.5229  -0.9352   1.0623   H         1 1      0.0000
    25 C7      -2.6096  -0.2940  -0.0463   C.ar      1 1      0.0000
    26 H8      -3.3310   1.5647  -0.8467   H         1 1      0.0000
    27 H6      -1.6847  -2.0592   0.7584   H         1 1      0.0000
    28 NO      -3.9106  -0.9643  -0.2226   N.pl3     1 1      0.0000
    29 ON2     -4.9257  -0.4759   0.3969   O.2       1 1      0.0000
    30 ON1     -3.9521  -1.9991  -0.9847   O.2       1 1      0.0000
    31 C15      2.4109  -2.7222  -1.1552   C.3       1 1      0.0000
    32 H15A     1.9402  -3.1055  -0.2418   H         1 1      0.0000
    33 H15C     2.0214  -3.3161  -1.9875   H         1 1      0.0000
    34 H15B     3.4927  -2.9015  -1.1209   H         1 1      0.0000
@<TRIPOS>BOND
     1     1     2    1
     2     1    15    1
     3     1    16    1
     4     1    18    1
     5     2     3    1
     6     2     4    1
     7     2    14    1
     8     4     5    1
     9     4     8    2
    10     5     6    1
    11     5     7    1
    12     5    31    1
    13     8     9    1
    14     8    10    1
    15    10    11    1
    16    10    12    1
    17    10    13    1
    18    15    17    1
    19    18    19   ar
    20    18    20   ar
    21    19    21   ar
    22    19    22    1
    23    20    23   ar
    24    20    24    1
    25    21    25   ar
    26    21    26    1
    27    23    25   ar
    28    23    27    1
    29    25    28    1
    30    28    29   un
    31    28    30   un
    32    31    32    1
    33    31    33    1
    34    31    34    1
@<TRIPOS>SUBSTRUCTURE
     1 1           1 GROUP             0 ****  ****    0  
@<TRIPOS>MOLECULE
Molecule Name_00107
    34    34     1     0     0
SMALL
NO_CHARGES
****
Generated from the CSD

@<TRIPOS>ATOM
     1 C11      1.0458  -0.3449   0.5201   C.3       1 1      0.0000
     2 C12      1.7653  -0.1056  -0.8438   C.3       1 1      0.0000
     3 H12A     1.3643   0.8079  -1.2884   H         1 1      0.0000
     4 C13      3.2546  -0.0253  -0.6519   C.2       1 1      0.0000
     5 C14      4.0378  -1.3091  -0.5608   C.3       1 1      0.0000
     6 H14B     4.9110  -1.2032  -1.2227   H         1 1      0.0000
     7 H14A     3.4178  -2.0966  -1.0147   H         1 1      0.0000
     8 N        3.8712   1.1177  -0.5671   N.pl3     1 1      0.0000
     9 HN       4.8863   1.0940  -0.4327   H         1 1      0.0000
    10 C        3.2543   2.4823  -0.5959   C.3       1 1      0.0000
    11 HC       4.0514   3.1998  -0.7954   H         1 1      0.0000
    12 HB       2.5088   2.5355  -1.3953   H         1 1      0.0000
    13 HA       2.8044   2.6750   0.3789   H         1 1      0.0000
    14 H12B     1.5305  -0.9456  -1.5065   H         1 1      0.0000
    15 O1       1.5942   0.7254   1.3854   O.3       1 1      0.0000
    16 H11      1.3314  -1.3247   0.9224   H         1 1      0.0000
    17 OH1      1.1771   0.7045   2.2875   H         1 1      0.0000
    18 C10     -0.4594  -0.2719   0.3610   C.ar      1 1      0.0000
    19 C9      -1.1337  -1.2676  -0.3610   C.ar      1 1      0.0000
    20 C5      -1.1762   0.8013   0.9148   C.ar      1 1      0.0000
    21 C8      -2.5147  -1.1863  -0.5480   C.ar      1 1      0.0000
    22 H9      -0.5891  -2.1113  -0.7755   H         1 1      0.0000
    23 C6      -2.5564   0.8865   0.7424   C.ar      1 1      0.0000
    24 H5      -0.6614   1.5585   1.4971   H         1 1      0.0000
    25 C7      -3.2017  -0.1078   0.0060   C.ar      1 1      0.0000
    26 H8      -3.0557  -1.9427  -1.1020   H         1 1      0.0000
    27 H6      -3.1309   1.7012   1.1641   H         1 1      0.0000
    28 NO      -4.6602  -0.0167  -0.1870   N.pl3     1 1      0.0000
    29 ON2     -5.3859  -0.9780   0.2624   O.2       1 1      0.0000
    30 ON1     -5.1198   1.0188  -0.7952   O.2       1 1      0.0000
    31 C15      4.4871  -1.7374   0.8477   C.3       1 1      0.0000
    32 H15A     3.6343  -1.9023   1.5172   H         1 1      0.0000
    33 H15C     5.0265  -2.6868   0.7792   H         1 1      0.0000
    34 H15B     5.1796  -1.0146   1.2967   H         1 1      0.0000
@<TRIPOS>BOND
     1     1     2    1
     2     1    15    1
     3     1    16    1
     4     1    18    1
     5     2     3    1
     6     2     4    1
     7     2    14    1
     8     4     5    1
     9     4     8    2
    10     5     6    1
    11     5     7    1
    12     5    31    1
    13     8     9    1
    14     8    10    1
    15    10    11    1
    16    10    12    1
    17    10    13    1
    18    15    17    1
    19    18    19   ar
    20    18    20   ar
    21    19    21   ar
    22    19    22    1
    23    20    23   ar
    24    20    24    1
    25    21    25   ar
    26    21    26    1
    27    23    25   ar
    28    23    27    1
    29    25    28    1
    30    28    29   un
    31    28    30   un
    32    31    32    1
    33    31    33    1
    34    31    34    1
@<TRIPOS>SUBSTRUCTURE
     1 1           1 GROUP             0 ****  ****    0  
@<TRIPOS>MOLECULE
Molecule Name_00108
    34    34     1     0     0
SMALL
NO_CHARGES
****
Generated from the CSD

@<TRIPOS>ATOM
     1 C11      1.2575  -0.4396   1.5903   C.3       1 1      0.0000
     2 C12      2.2719   0.4946   0.8601   C.3       1 1      0.0000
     3 H12A     3.2277   0.4420   1.3861   H         1 1      0.0000
     4 C13      2.4086   0.1036  -0.5855   C.2       1 1      0.0000
     5 C14      2.7287  -1.3313  -0.9148   C.3       1 1      0.0000
     6 H14B     2.4981  -1.4779  -1.9811   H         1 1      0.0000
     7 H14A     2.0055  -1.9553  -0.3686   H         1 1      0.0000
     8 N        2.2547   0.9700  -1.5444   N.pl3     1 1      0.0000
     9 HN       2.3667   0.6316  -2.5045   H         1 1      0.0000
    10 C        1.9761   2.4349  -1.4034   C.3       1 1      0.0000
    11 HC       2.0435   2.8800  -2.3971   H         1 1      0.0000
    12 HB       0.9673   2.5841  -1.0060   H         1 1      0.0000
    13 HA       2.7299   2.8645  -0.7423   H         1 1      0.0000
    14 H12B     1.8976   1.5220   0.9233   H         1 1      0.0000
    15 O1       1.3242   0.0205   2.9971   O.3       1 1      0.0000
    16 H11      1.6007  -1.4797   1.5276   H         1 1      0.0000
    17 OH1      0.6822  -0.4798   3.5676   H         1 1      0.0000
    18 C10     -0.1270  -0.3165   0.9866   C.ar      1 1      0.0000
    19 C9      -0.5720  -1.2719   0.0611   C.ar      1 1      0.0000
    20 C5      -0.9549   0.7633   1.3343   C.ar      1 1      0.0000
    21 C8      -1.8294  -1.1435  -0.5314   C.ar      1 1      0.0000
    22 H9       0.0545  -2.1207  -0.1981   H         1 1      0.0000
    23 C6      -2.2159   0.8952   0.7561   C.ar      1 1      0.0000
    24 H5      -0.6247   1.4889   2.0705   H         1 1      0.0000
    25 C7      -2.6288  -0.0593  -0.1744   C.ar      1 1      0.0000
    26 H8      -2.1931  -1.8682  -1.2485   H         1 1      0.0000
    27 H6      -2.8737   1.7157   1.0122   H         1 1      0.0000
    28 NO      -3.9581   0.0813  -0.7957   N.pl3     1 1      0.0000
    29 ON2     -4.0133   0.1951  -2.0750   O.2       1 1      0.0000
    30 ON1     -4.9838   0.0834  -0.0201   O.2       1 1      0.0000
    31 C15      4.1636  -1.7987  -0.6119   C.3       1 1      0.0000
    32 H15A     4.4054  -1.7140   0.4544   H         1 1      0.0000
    33 H15C     4.2604  -2.8556  -0.8776   H         1 1      0.0000
    34 H15B     4.9079  -1.2558  -1.2077   H         1 1      0.0000
@<TRIPOS>BOND
     1     1     2    1
     2     1    15    1
     3     1    16    1
     4     1    18    1
     5     2     3    1
     6     2     4    1
     7     2    14    1
     8     4     5    1
     9     4     8    2
    10     5     6    1
    11     5     7    1
    12     5    31    1
    13     8     9    1
    14     8    10    1
    15    10    11    1
    16    10    12    1
    17    10    13    1
    18    15    17    1
    19    18    19   ar
    20    18    20   ar
    21    19    21   ar
    22    19    22    1
    23    20    23   ar
    24    20    24    1
    25    21    25   ar
    26    21    26    1
    27    23    25   ar
    28    23    27    1
    29    25    28    1
    30    28    29   un
    31    28    30   un
    32    31    32    1
    33    31    33    1
    34    31    34    1
@<TRIPOS>SUBSTRUCTURE
     1 1           1 GROUP             0 ****  ****    0  
@<TRIPOS>MOLECULE
Molecule Name_00109
    34    34     1     0     0
SMALL
NO_CHARGES
****
Generated from the CSD

@<TRIPOS>ATOM
     1 C11      1.1992   1.4565   0.8658   C.3       1 1      0.0000
     2 C12      2.2780   0.9885  -0.1600   C.3       1 1      0.0000
     3 H12A     3.2189   1.4895   0.0780   H         1 1      0.0000
     4 C13      2.4211  -0.5082  -0.1349   C.2       1 1      0.0000
     5 C14      1.9545  -1.2951  -1.3318   C.3       1 1      0.0000
     6 H14B     0.9214  -0.9798  -1.5439   H         1 1      0.0000
     7 H14A     1.8826  -2.3469  -1.0166   H         1 1      0.0000
     8 N        2.9365  -1.1274   0.8873   N.pl3     1 1      0.0000
     9 HN       2.9983  -2.1484   0.8346   H         1 1      0.0000
    10 C        3.4125  -0.5161   2.1691   C.3       1 1      0.0000
    11 HC       4.2147  -1.1459   2.5563   H         1 1      0.0000
    12 HB       3.7998   0.4897   1.9790   H         1 1      0.0000
    13 HA       2.5759  -0.4929   2.8685   H         1 1      0.0000
    14 H12B     1.9600   1.3049  -1.1593   H         1 1      0.0000
    15 O1       1.2449   2.9333   0.7564   O.3       1 1      0.0000
    16 H11      1.4951   1.1540   1.8780   H         1 1      0.0000
    17 OH1      0.5631   3.3564   1.3432   H         1 1      0.0000
    18 C10     -0.1590   0.8744   0.5303   C.ar      1 1      0.0000
    19 C9      -0.6147  -0.2676   1.2055   C.ar      1 1      0.0000
    20 C5      -0.9509   1.4617  -0.4698   C.ar      1 1      0.0000
    21 C8      -1.8462  -0.8350   0.8738   C.ar      1 1      0.0000
    22 H9      -0.0169  -0.7161   1.9939   H         1 1      0.0000
    23 C6      -2.1863   0.9089  -0.8015   C.ar      1 1      0.0000
    24 H5      -0.6136   2.3610  -0.9748   H         1 1      0.0000
    25 C7      -2.6098  -0.2369  -0.1269   C.ar      1 1      0.0000
    26 H8      -2.2176  -1.7163   1.3810   H         1 1      0.0000
    27 H6      -2.8165   1.3467  -1.5649   H         1 1      0.0000
    28 NO      -3.9117  -0.8307  -0.4810   N.pl3     1 1      0.0000
    29 ON2     -3.9217  -2.0429  -0.9088   O.2       1 1      0.0000
    30 ON1     -4.9603  -0.0995  -0.3421   O.2       1 1      0.0000
    31 C15      2.8162  -1.1827  -2.6023   C.3       1 1      0.0000
    32 H15A     3.8395  -1.5400  -2.4360   H         1 1      0.0000
    33 H15C     2.3830  -1.8106  -3.3866   H         1 1      0.0000
    34 H15B     2.8377  -0.1589  -2.9960   H         1 1      0.0000
@<TRIPOS>BOND
     1     1     2    1
     2     1    15    1
     3     1    16    1
     4     1    18    1
     5     2     3    1
     6     2     4    1
     7     2    14    1
     8     4     5    1
     9     4     8    2
    10     5     6    1
    11     5     7    1
    12     5    31    1
    13     8     9    1
    14     8    10    1
    15    10    11    1
    16    10    12    1
    17    10    13    1
    18    15    17    1
    19    18    19   ar
    20    18    20   ar
    21    19    21   ar
    22    19    22    1
    23    20    23   ar
    24    20    24    1
    25    21    25   ar
    26    21    26    1
    27    23    25   ar
    28    23    27    1
    29    25    28    1
    30    28    29   un
    31    28    30   un
    32    31    32    1
    33    31    33    1
    34    31    34    1
@<TRIPOS>SUBSTRUCTURE
     1 1           1 GROUP             0 ****  ****    0  
@<TRIPOS>MOLECULE
Molecule Name_00110
    34    34     1     0     0
SMALL
NO_CHARGES
****
Generated from the CSD

@<TRIPOS>ATOM
     1 C11      0.9948  -0.8552   0.1374   C.3       1 1      0.0000
     2 C12      1.8313   0.4553   0.2712   C.3       1 1      0.0000
     3 H12A     1.8656   0.7350   1.3264   H         1 1      0.0000
     4 C13      3.2091   0.2669  -0.3010   C.2       1 1      0.0000
     5 C14      4.0510  -0.8721   0.2125   C.3       1 1      0.0000
     6 H14B     4.4958  -1.3669  -0.6645   H         1 1      0.0000
     7 H14A     3.3613  -1.6101   0.6488   H         1 1      0.0000
     8 N        3.6799   1.0575  -1.2213   N.pl3     1 1      0.0000
     9 HN       4.6280   0.8700  -1.5604   H         1 1      0.0000
    10 C        3.0054   2.2551  -1.8165   C.3       1 1      0.0000
    11 HC       3.7328   2.7601  -2.4535   H         1 1      0.0000
    12 HB       2.1511   1.9369  -2.4220   H         1 1      0.0000
    13 HA       2.6922   2.9108  -1.0030   H         1 1      0.0000
    14 H12B     1.3155   1.2483  -0.2810   H         1 1      0.0000
    15 O1       1.4108  -1.6455   1.3196   O.3       1 1      0.0000
    16 H11      1.2823  -1.3860  -0.7786   H         1 1      0.0000
    17 OH1      0.9101  -2.5027   1.3707   H         1 1      0.0000
    18 C10     -0.4899  -0.5527   0.1134   C.ar      1 1      0.0000
    19 C9      -1.4075  -1.5818  -0.1441   C.ar      1 1      0.0000
    20 C5      -0.9463   0.7584   0.3254   C.ar      1 1      0.0000
    21 C8      -2.7740  -1.3044  -0.2094   C.ar      1 1      0.0000
    22 H9      -1.0638  -2.6021  -0.2895   H         1 1      0.0000
    23 C6      -2.3092   1.0441   0.2723   C.ar      1 1      0.0000
    24 H5      -0.2413   1.5515   0.5521   H         1 1      0.0000
    25 C7      -3.2005   0.0060  -0.0021   C.ar      1 1      0.0000
    26 H8      -3.5001  -2.0825  -0.4073   H         1 1      0.0000
    27 H6      -2.6851   2.0455   0.4375   H         1 1      0.0000
    28 NO      -4.6424   0.3053  -0.0686   N.pl3     1 1      0.0000
    29 ON2     -5.0123   1.5210   0.1259   O.2       1 1      0.0000
    30 ON1     -5.4447  -0.6687  -0.3159   O.2       1 1      0.0000
    31 C15      5.1467  -0.5077   1.2302   C.3       1 1      0.0000
    32 H15A     4.7284  -0.0598   2.1396   H         1 1      0.0000
    33 H15C     5.6703  -1.4186   1.5355   H         1 1      0.0000
    34 H15B     5.9033   0.1598   0.7995   H         1 1      0.0000
@<TRIPOS>BOND
     1     1     2    1
     2     1    15    1
     3     1    16    1
     4     1    18    1
     5     2     3    1
     6     2     4    1
     7     2    14    1
     8     4     5    1
     9     4     8    2
    10     5     6    1
    11     5     7    1
    12     5    31    1
    13     8     9    1
    14     8    10    1
    15    10    11    1
    16    10    12    1
    17    10    13    1
    18    15    17    1
    19    18    19   ar
    20    18    20   ar
    21    19    21   ar
    22    19    22    1
    23    20    23   ar
    24    20    24    1
    25    21    25   ar
    26    21    26    1
    27    23    25   ar
    28    23    27    1
    29    25    28    1
    30    28    29   un
    31    28    30   un
    32    31    32    1
    33    31    33    1
    34    31    34    1
@<TRIPOS>SUBSTRUCTURE
     1 1           1 GROUP             0 ****  ****    0  
@<TRIPOS>MOLECULE
Molecule Name_00111
    34    34     1     0     0
SMALL
NO_CHARGES
****
Generated from the CSD

@<TRIPOS>ATOM
     1 C11      1.0578   0.3097   0.8034   C.3       1 1      0.0000
     2 C12      1.8807   0.3318  -0.5223   C.3       1 1      0.0000
     3 H12A     1.7976   1.3282  -0.9619   H         1 1      0.0000
     4 C13      3.3132  -0.0463  -0.2648   C.2       1 1      0.0000
     5 C14      3.6633  -1.5080  -0.1616   C.3       1 1      0.0000
     6 H14B     3.5163  -1.8027   0.8888   H         1 1      0.0000
     7 H14A     4.7453  -1.5927  -0.3426   H         1 1      0.0000
     8 N        4.2438   0.8540  -0.1342   N.pl3     1 1      0.0000
     9 HN       5.1962   0.5216   0.0436   H         1 1      0.0000
    10 C        4.0738   2.3418  -0.1666   C.3       1 1      0.0000
    11 HC       5.0640   2.7887  -0.0674   H         1 1      0.0000
    12 HB       3.6326   2.6440  -1.1215   H         1 1      0.0000
    13 HA       3.4398   2.6320   0.6722   H         1 1      0.0000
    14 H12B     1.4345  -0.3906  -1.2142   H         1 1      0.0000
    15 O1       1.3657   1.6231   1.4159   O.3       1 1      0.0000
    16 H11      1.4252  -0.4939   1.4537   H         1 1      0.0000
    17 OH1      0.8613   1.7494   2.2631   H         1 1      0.0000
    18 C10     -0.4184   0.1122   0.5239   C.ar      1 1      0.0000
    19 C9      -0.8754  -1.1155   0.0225   C.ar      1 1      0.0000
    20 C5      -1.3248   1.1621   0.7439   C.ar      1 1      0.0000
    21 C8      -2.2273  -1.2923  -0.2772   C.ar      1 1      0.0000
    22 H9      -0.1837  -1.9388  -0.1317   H         1 1      0.0000
    23 C6      -2.6779   0.9925   0.4575   C.ar      1 1      0.0000
    24 H5      -0.9788   2.1038   1.1575   H         1 1      0.0000
    25 C7      -3.1049  -0.2327  -0.0561   C.ar      1 1      0.0000
    26 H8      -2.6022  -2.2307  -0.6654   H         1 1      0.0000
    27 H6      -3.3960   1.7851   0.6237   H         1 1      0.0000
    28 NO      -4.5339  -0.4136  -0.3695   N.pl3     1 1      0.0000
    29 ON2     -5.2043   0.6218  -0.7318   O.2       1 1      0.0000
    30 ON1     -5.0253  -1.5968  -0.2600   O.2       1 1      0.0000
    31 C15      2.8960  -2.4624  -1.0940   C.3       1 1      0.0000
    32 H15A     3.0654  -2.2261  -2.1514   H         1 1      0.0000
    33 H15C     3.2534  -3.4842  -0.9347   H         1 1      0.0000
    34 H15B     1.8198  -2.4695  -0.8810   H         1 1      0.0000
@<TRIPOS>BOND
     1     1     2    1
     2     1    15    1
     3     1    16    1
     4     1    18    1
     5     2     3    1
     6     2     4    1
     7     2    14    1
     8     4     5    1
     9     4     8    2
    10     5     6    1
    11     5     7    1
    12     5    31    1
    13     8     9    1
    14     8    10    1
    15    10    11    1
    16    10    12    1
    17    10    13    1
    18    15    17    1
    19    18    19   ar
    20    18    20   ar
    21    19    21   ar
    22    19    22    1
    23    20    23   ar
    24    20    24    1
    25    21    25   ar
    26    21    26    1
    27    23    25   ar
    28    23    27    1
    29    25    28    1
    30    28    29   un
    31    28    30   un
    32    31    32    1
    33    31    33    1
    34    31    34    1
@<TRIPOS>SUBSTRUCTURE
     1 1           1 GROUP             0 ****  ****    0  
@<TRIPOS>MOLECULE
Molecule Name_00112
    34    34     1     0     0
SMALL
NO_CHARGES
****
Generated from the CSD

@<TRIPOS>ATOM
     1 C11      1.1110  -0.5078   0.5565   C.3       1 1      0.0000
     2 C12      1.8480   0.8006   0.1321   C.3       1 1      0.0000
     3 H12A     1.8110   1.5025   0.9682   H         1 1      0.0000
     4 C13      3.2620   0.5028  -0.2839   C.2       1 1      0.0000
     5 C14      4.1382  -0.2818   0.6577   C.3       1 1      0.0000
     6 H14B     4.0205   0.1645   1.6570   H         1 1      0.0000
     7 H14A     5.1807  -0.0830   0.3672   H         1 1      0.0000
     8 N        3.7353   0.9027  -1.4284   N.pl3     1 1      0.0000
     9 HN       4.7087   0.6660  -1.6417   H         1 1      0.0000
    10 C        3.0270   1.7212  -2.4637   C.3       1 1      0.0000
    11 HC       3.7574   1.9880  -3.2288   H         1 1      0.0000
    12 HB       2.2244   1.1315  -2.9173   H         1 1      0.0000
    13 HA       2.6360   2.6182  -1.9819   H         1 1      0.0000
    14 H12B     1.3069   1.2394  -0.7130   H         1 1      0.0000
    15 O1       1.5029  -0.6731   1.9757   O.3       1 1      0.0000
    16 H11      1.4908  -1.3535  -0.0301   H         1 1      0.0000
    17 OH1      1.0583  -1.4652   2.3794   H         1 1      0.0000
    18 C10     -0.3860  -0.3763   0.3616   C.ar      1 1      0.0000
    19 C9      -0.9890  -0.9063  -0.7886   C.ar      1 1      0.0000
    20 C5      -1.1659   0.2942   1.3179   C.ar      1 1      0.0000
    21 C8      -2.3609  -0.7533  -0.9964   C.ar      1 1      0.0000
    22 H9      -0.3959  -1.4436  -1.5232   H         1 1      0.0000
    23 C6      -2.5378   0.4436   1.1248   C.ar      1 1      0.0000
    24 H5      -0.7070   0.6813   2.2218   H         1 1      0.0000
    25 C7      -3.1112  -0.0780  -0.0356   C.ar      1 1      0.0000
    26 H8      -2.8474  -1.1535  -1.8767   H         1 1      0.0000
    27 H6      -3.1602   0.9518   1.8500   H         1 1      0.0000
    28 NO      -4.5605   0.0858  -0.2487   N.pl3     1 1      0.0000
    29 ON2     -5.2745  -0.9775  -0.3599   O.2       1 1      0.0000
    30 ON1     -5.0242   1.2835  -0.3122   O.2       1 1      0.0000
    31 C15      3.8879  -1.7992   0.7201   C.3       1 1      0.0000
    32 H15A     3.2938  -2.1517  -0.1316   H         1 1      0.0000
    33 H15C     4.8474  -2.3233   0.6778   H         1 1      0.0000
    34 H15B     3.4077  -2.0991   1.6598   H         1 1      0.0000
@<TRIPOS>BOND
     1     1     2    1
     2     1    15    1
     3     1    16    1
     4     1    18    1
     5     2     3    1
     6     2     4    1
     7     2    14    1
     8     4     5    1
     9     4     8    2
    10     5     6    1
    11     5     7    1
    12     5    31    1
    13     8     9    1
    14     8    10    1
    15    10    11    1
    16    10    12    1
    17    10    13    1
    18    15    17    1
    19    18    19   ar
    20    18    20   ar
    21    19    21   ar
    22    19    22    1
    23    20    23   ar
    24    20    24    1
    25    21    25   ar
    26    21    26    1
    27    23    25   ar
    28    23    27    1
    29    25    28    1
    30    28    29   un
    31    28    30   un
    32    31    32    1
    33    31    33    1
    34    31    34    1
@<TRIPOS>SUBSTRUCTURE
     1 1           1 GROUP             0 ****  ****    0  
@<TRIPOS>MOLECULE
Molecule Name_00113
    34    34     1     0     0
SMALL
NO_CHARGES
****
Generated from the CSD

@<TRIPOS>ATOM
     1 C11      1.0127  -0.7020  -0.5092   C.3       1 1      0.0000
     2 C12      1.8838   0.1325   0.4808   C.3       1 1      0.0000
     3 H12A     1.8886  -0.3763   1.4473   H         1 1      0.0000
     4 C13      3.2749   0.3155  -0.0600   C.2       1 1      0.0000
     5 C14      4.2731  -0.7964   0.1328   C.3       1 1      0.0000
     6 H14B     5.1066  -0.6070  -0.5608   H         1 1      0.0000
     7 H14A     3.7966  -1.7215  -0.2248   H         1 1      0.0000
     8 N        3.6266   1.4011  -0.6857   N.pl3     1 1      0.0000
     9 HN       4.5922   1.4562  -1.0227   H         1 1      0.0000
    10 C        2.7855   2.6158  -0.9320   C.3       1 1      0.0000
    11 HC       3.4324   3.3830  -1.3597   H         1 1      0.0000
    12 HB       1.9873   2.3766  -1.6413   H         1 1      0.0000
    13 HA       2.3795   2.9501   0.0236   H         1 1      0.0000
    14 H12B     1.4129   1.1133   0.6078   H         1 1      0.0000
    15 O1       1.4118  -2.0987  -0.2179   O.3       1 1      0.0000
    16 H11      1.2831  -0.4507  -1.5423   H         1 1      0.0000
    17 OH1      0.9177  -2.7394  -0.7954   H         1 1      0.0000
    18 C10     -0.4635  -0.4434  -0.2854   C.ar      1 1      0.0000
    19 C9      -1.3660  -1.5171  -0.2741   C.ar      1 1      0.0000
    20 C5      -0.9317   0.8693  -0.1125   C.ar      1 1      0.0000
    21 C8      -2.7326  -1.2843  -0.1103   C.ar      1 1      0.0000
    22 H9      -1.0095  -2.5370  -0.3874   H         1 1      0.0000
    23 C6      -2.2929   1.1116   0.0618   C.ar      1 1      0.0000
    24 H5      -0.2332   1.6995  -0.0932   H         1 1      0.0000
    25 C7      -3.1722   0.0280   0.0526   C.ar      1 1      0.0000
    26 H8      -3.4472  -2.0974  -0.0990   H         1 1      0.0000
    27 H6      -2.6767   2.1138   0.2022   H         1 1      0.0000
    28 NO      -4.6140   0.2803   0.2271   N.pl3     1 1      0.0000
    29 ON2     -5.0829   1.3993  -0.1980   O.2       1 1      0.0000
    30 ON1     -5.3167  -0.6339   0.7960   O.2       1 1      0.0000
    31 C15      4.8062  -0.9962   1.5629   C.3       1 1      0.0000
    32 H15A     4.0032  -1.2391   2.2691   H         1 1      0.0000
    33 H15C     5.5037  -1.8391   1.5714   H         1 1      0.0000
    34 H15B     5.3655  -0.1224   1.9198   H         1 1      0.0000
@<TRIPOS>BOND
     1     1     2    1
     2     1    15    1
     3     1    16    1
     4     1    18    1
     5     2     3    1
     6     2     4    1
     7     2    14    1
     8     4     5    1
     9     4     8    2
    10     5     6    1
    11     5     7    1
    12     5    31    1
    13     8     9    1
    14     8    10    1
    15    10    11    1
    16    10    12    1
    17    10    13    1
    18    15    17    1
    19    18    19   ar
    20    18    20   ar
    21    19    21   ar
    22    19    22    1
    23    20    23   ar
    24    20    24    1
    25    21    25   ar
    26    21    26    1
    27    23    25   ar
    28    23    27    1
    29    25    28    1
    30    28    29   un
    31    28    30   un
    32    31    32    1
    33    31    33    1
    34    31    34    1
@<TRIPOS>SUBSTRUCTURE
     1 1           1 GROUP             0 ****  ****    0  
@<TRIPOS>MOLECULE
Molecule Name_00114
    34    34     1     0     0
SMALL
NO_CHARGES
****
Generated from the CSD

@<TRIPOS>ATOM
     1 C11      1.0352   0.1415  -0.8100   C.3       1 1      0.0000
     2 C12      1.8591   0.2792   0.5080   C.3       1 1      0.0000
     3 H12A     1.5687  -0.5305   1.1811   H         1 1      0.0000
     4 C13      3.3342   0.2603   0.2168   C.2       1 1      0.0000
     5 C14      4.0236  -1.0726   0.0835   C.3       1 1      0.0000
     6 H14B     5.0989  -0.8982   0.2413   H         1 1      0.0000
     7 H14A     3.9264  -1.3807  -0.9684   H         1 1      0.0000
     8 N        4.0165   1.3598   0.0770   N.pl3     1 1      0.0000
     9 HN       5.0181   1.2687  -0.1163   H         1 1      0.0000
    10 C        3.5095   2.7624   0.2150   C.3       1 1      0.0000
    11 HC       4.3711   3.4300   0.1697   H         1 1      0.0000
    12 HB       2.8273   2.9930  -0.6091   H         1 1      0.0000
    13 HA       3.0093   2.8520   1.1802   H         1 1      0.0000
    14 H12B     1.5953   1.2325   0.9785   H         1 1      0.0000
    15 O1       1.5944  -1.0804  -1.4338   O.3       1 1      0.0000
    16 H11      1.2270   1.0054  -1.4584   H         1 1      0.0000
    17 OH1      1.1172  -1.3016  -2.2773   H         1 1      0.0000
    18 C10     -0.4477   0.0370  -0.5160   C.ar      1 1      0.0000
    19 C9      -1.3506   0.8866  -1.1721   C.ar      1 1      0.0000
    20 C5      -0.9162  -0.8916   0.4276   C.ar      1 1      0.0000
    21 C8      -2.7136   0.8258  -0.8767   C.ar      1 1      0.0000
    22 H9      -0.9984   1.5939  -1.9177   H         1 1      0.0000
    23 C6      -2.2761  -0.9672   0.7223   C.ar      1 1      0.0000
    24 H5      -0.2237  -1.5690   0.9167   H         1 1      0.0000
    25 C7      -3.1520  -0.0998   0.0683   C.ar      1 1      0.0000
    26 H8      -3.4283   1.4719  -1.3701   H         1 1      0.0000
    27 H6      -2.6613  -1.6782   1.4418   H         1 1      0.0000
    28 NO      -4.5902  -0.1696   0.3838   N.pl3     1 1      0.0000
    29 ON2     -5.4013  -0.4502  -0.5733   O.2       1 1      0.0000
    30 ON1     -4.9479   0.0559   1.5981   O.2       1 1      0.0000
    31 C15      3.5253  -2.1958   1.0105   C.3       1 1      0.0000
    32 H15A     2.4676  -2.4292   0.8393   H         1 1      0.0000
    33 H15C     4.0906  -3.1094   0.8034   H         1 1      0.0000
    34 H15B     3.6886  -1.9589   2.0691   H         1 1      0.0000
@<TRIPOS>BOND
     1     1     2    1
     2     1    15    1
     3     1    16    1
     4     1    18    1
     5     2     3    1
     6     2     4    1
     7     2    14    1
     8     4     5    1
     9     4     8    2
    10     5     6    1
    11     5     7    1
    12     5    31    1
    13     8     9    1
    14     8    10    1
    15    10    11    1
    16    10    12    1
    17    10    13    1
    18    15    17    1
    19    18    19   ar
    20    18    20   ar
    21    19    21   ar
    22    19    22    1
    23    20    23   ar
    24    20    24    1
    25    21    25   ar
    26    21    26    1
    27    23    25   ar
    28    23    27    1
    29    25    28    1
    30    28    29   un
    31    28    30   un
    32    31    32    1
    33    31    33    1
    34    31    34    1
@<TRIPOS>SUBSTRUCTURE
     1 1           1 GROUP             0 ****  ****    0  
@<TRIPOS>MOLECULE
Molecule Name_00115
    34    34     1     0     0
SMALL
NO_CHARGES
****
Generated from the CSD

@<TRIPOS>ATOM
     1 C11      0.9452  -0.2431   0.6409   C.3       1 1      0.0000
     2 C12      1.7411   0.1749  -0.6346   C.3       1 1      0.0000
     3 H12A     1.5154   1.2209  -0.8532   H         1 1      0.0000
     4 C13      3.2152  -0.0482  -0.4379   C.2       1 1      0.0000
     5 C14      3.6812  -1.4028   0.0287   C.3       1 1      0.0000
     6 H14B     3.2903  -2.1434  -0.6858   H         1 1      0.0000
     7 H14A     3.1664  -1.6099   0.9788   H         1 1      0.0000
     8 N        4.0841   0.8941  -0.6631   N.pl3     1 1      0.0000
     9 HN       5.0707   0.6701  -0.5035   H         1 1      0.0000
    10 C        3.8014   2.3021  -1.0886   C.3       1 1      0.0000
    11 HC       4.7424   2.8527  -1.0510   H         1 1      0.0000
    12 HB       3.4165   2.3098  -2.1131   H         1 1      0.0000
    13 HA       3.0811   2.7321  -0.3915   H         1 1      0.0000
    14 H12B     1.3910  -0.4376  -1.4725   H         1 1      0.0000
    15 O1       1.4120   0.7218   1.6636   O.3       1 1      0.0000
    16 H11      1.2302  -1.2599   0.9384   H         1 1      0.0000
    17 OH1      0.9742   0.5535   2.5400   H         1 1      0.0000
    18 C10     -0.5487  -0.1775   0.3955   C.ar      1 1      0.0000
    19 C9      -1.3981   0.3243   1.3925   C.ar      1 1      0.0000
    20 C5      -1.0854  -0.6389  -0.8175   C.ar      1 1      0.0000
    21 C8      -2.7792   0.3497   1.1913   C.ar      1 1      0.0000
    22 H9      -0.9890   0.7014   2.3256   H         1 1      0.0000
    23 C6      -2.4619  -0.6086  -1.0323   C.ar      1 1      0.0000
    24 H5      -0.4289  -1.0021  -1.6014   H         1 1      0.0000
    25 C7      -3.2870  -0.1202  -0.0184   C.ar      1 1      0.0000
    26 H8      -3.4537   0.7319   1.9468   H         1 1      0.0000
    27 H6      -2.8983  -0.9537  -1.9608   H         1 1      0.0000
    28 NO      -4.7445  -0.0950  -0.2375   N.pl3     1 1      0.0000
    29 ON2     -5.4845  -0.7651   0.5725   O.2       1 1      0.0000
    30 ON1     -5.1889   0.5949  -1.2275   O.2       1 1      0.0000
    31 C15      5.2002  -1.5811   0.2017   C.3       1 1      0.0000
    32 H15A     5.6111  -0.8908   0.9482   H         1 1      0.0000
    33 H15C     5.4042  -2.5949   0.5590   H         1 1      0.0000
    34 H15B     5.7388  -1.4684  -0.7473   H         1 1      0.0000
@<TRIPOS>BOND
     1     1     2    1
     2     1    15    1
     3     1    16    1
     4     1    18    1
     5     2     3    1
     6     2     4    1
     7     2    14    1
     8     4     5    1
     9     4     8    2
    10     5     6    1
    11     5     7    1
    12     5    31    1
    13     8     9    1
    14     8    10    1
    15    10    11    1
    16    10    12    1
    17    10    13    1
    18    15    17    1
    19    18    19   ar
    20    18    20   ar
    21    19    21   ar
    22    19    22    1
    23    20    23   ar
    24    20    24    1
    25    21    25   ar
    26    21    26    1
    27    23    25   ar
    28    23    27    1
    29    25    28    1
    30    28    29   un
    31    28    30   un
    32    31    32    1
    33    31    33    1
    34    31    34    1
@<TRIPOS>SUBSTRUCTURE
     1 1           1 GROUP             0 ****  ****    0  
@<TRIPOS>MOLECULE
Molecule Name_00116
    34    34     1     0     0
SMALL
NO_CHARGES
****
Generated from the CSD

@<TRIPOS>ATOM
     1 C11      1.0242  -0.3239   0.7084   C.3       1 1      0.0000
     2 C12      1.8347   0.4246  -0.3952   C.3       1 1      0.0000
     3 H12A     1.5686   1.4833  -0.3585   H         1 1      0.0000
     4 C13      3.3113   0.2138  -0.2049   C.2       1 1      0.0000
     5 C14      3.8257  -1.1966  -0.0789   C.3       1 1      0.0000
     6 H14B     3.2460  -1.6824   0.7209   H         1 1      0.0000
     7 H14A     4.8557  -1.1300   0.3027   H         1 1      0.0000
     8 N        4.1422   1.2141  -0.1506   N.pl3     1 1      0.0000
     9 HN       5.1332   0.9937  -0.0152   H         1 1      0.0000
    10 C        3.8072   2.6725  -0.2164   C.3       1 1      0.0000
    11 HC       4.7206   3.2301  -0.0046   H         1 1      0.0000
    12 HB       3.4509   2.9264  -1.2196   H         1 1      0.0000
    13 HA       3.0489   2.8838   0.5386   H         1 1      0.0000
    14 H12B     1.5348   0.0255  -1.3701   H         1 1      0.0000
    15 O1       1.4258   0.3702   1.9541   O.3       1 1      0.0000
    16 H11      1.3422  -1.3729   0.7538   H         1 1      0.0000
    17 OH1      0.9388   0.0047   2.7399   H         1 1      0.0000
    18 C10     -0.4645  -0.2480   0.4356   C.ar      1 1      0.0000
    19 C9      -1.3694  -0.8278   1.3369   C.ar      1 1      0.0000
    20 C5      -0.9374   0.3808  -0.7278   C.ar      1 1      0.0000
    21 C8      -2.7398  -0.7990   1.0726   C.ar      1 1      0.0000
    22 H9      -1.0128  -1.2985   2.2487   H         1 1      0.0000
    23 C6      -2.3042   0.4237  -0.9959   C.ar      1 1      0.0000
    24 H5      -0.2420   0.8542  -1.4132   H         1 1      0.0000
    25 C7      -3.1828  -0.1749  -0.0920   C.ar      1 1      0.0000
    26 H8      -3.4563  -1.2404   1.7535   H         1 1      0.0000
    27 H6      -2.6928   0.9070  -1.8830   H         1 1      0.0000
    28 NO      -4.6288  -0.1402  -0.3762   N.pl3     1 1      0.0000
    29 ON2     -5.3939   0.4436   0.4761   O.2       1 1      0.0000
    30 ON1     -5.0391  -0.6979  -1.4598   O.2       1 1      0.0000
    31 C15      3.7909  -2.0538  -1.3568   C.3       1 1      0.0000
    32 H15A     4.4038  -1.6215  -2.1568   H         1 1      0.0000
    33 H15C     4.2049  -3.0425  -1.1372   H         1 1      0.0000
    34 H15B     2.7671  -2.2151  -1.7167   H         1 1      0.0000
@<TRIPOS>BOND
     1     1     2    1
     2     1    15    1
     3     1    16    1
     4     1    18    1
     5     2     3    1
     6     2     4    1
     7     2    14    1
     8     4     5    1
     9     4     8    2
    10     5     6    1
    11     5     7    1
    12     5    31    1
    13     8     9    1
    14     8    10    1
    15    10    11    1
    16    10    12    1
    17    10    13    1
    18    15    17    1
    19    18    19   ar
    20    18    20   ar
    21    19    21   ar
    22    19    22    1
    23    20    23   ar
    24    20    24    1
    25    21    25   ar
    26    21    26    1
    27    23    25   ar
    28    23    27    1
    29    25    28    1
    30    28    29   un
    31    28    30   un
    32    31    32    1
    33    31    33    1
    34    31    34    1
@<TRIPOS>SUBSTRUCTURE
     1 1           1 GROUP             0 ****  ****    0  
@<TRIPOS>MOLECULE
Molecule Name_00117
    34    34     1     0     0
SMALL
NO_CHARGES
****
Generated from the CSD

@<TRIPOS>ATOM
     1 C11      1.0326  -0.7832  -0.0417   C.3       1 1      0.0000
     2 C12      1.8419   0.5479   0.0497   C.3       1 1      0.0000
     3 H12A     1.7628   0.9289   1.0703   H         1 1      0.0000
     4 C13      3.2736   0.3279  -0.3540   C.2       1 1      0.0000
     5 C14      4.0363  -0.8014   0.2886   C.3       1 1      0.0000
     6 H14B     4.9725  -0.9231  -0.2774   H         1 1      0.0000
     7 H14A     3.4608  -1.7216   0.1076   H         1 1      0.0000
     8 N        3.8571   1.0833  -1.2387   N.pl3     1 1      0.0000
     9 HN       4.8353   0.8759  -1.4605   H         1 1      0.0000
    10 C        3.2708   2.2669  -1.9451   C.3       1 1      0.0000
    11 HC       4.0729   2.7439  -2.5099   H         1 1      0.0000
    12 HB       2.4874   1.9369  -2.6344   H         1 1      0.0000
    13 HA       2.8750   2.9519  -1.1942   H         1 1      0.0000
    14 H12B     1.3823   1.2751  -0.6283   H         1 1      0.0000
    15 O1       1.5272  -1.5615   1.1179   O.3       1 1      0.0000
    16 H11      1.2865  -1.3078  -0.9711   H         1 1      0.0000
    17 OH1      1.0512  -2.4308   1.1942   H         1 1      0.0000
    18 C10     -0.4584  -0.5176   0.0094   C.ar      1 1      0.0000
    19 C9      -1.3615  -1.5851  -0.1023   C.ar      1 1      0.0000
    20 C5      -0.9370   0.7957   0.1450   C.ar      1 1      0.0000
    21 C8      -2.7366  -1.3452  -0.0982   C.ar      1 1      0.0000
    22 H9      -0.9993  -2.6058  -0.1876   H         1 1      0.0000
    23 C6      -2.3079   1.0449   0.1603   C.ar      1 1      0.0000
    24 H5      -0.2414   1.6207   0.2593   H         1 1      0.0000
    25 C7      -3.1856  -0.0323   0.0309   C.ar      1 1      0.0000
    26 H8      -3.4517  -2.1534  -0.1837   H         1 1      0.0000
    27 H6      -2.7005   2.0477   0.2690   H         1 1      0.0000
    28 NO      -4.6365   0.2275   0.0370   N.pl3     1 1      0.0000
    29 ON2     -5.3130  -0.1223  -0.9987   O.2       1 1      0.0000
    30 ON1     -5.1391   0.7904   1.0782   O.2       1 1      0.0000
    31 C15      4.3383  -0.6548   1.7907   C.3       1 1      0.0000
    32 H15A     3.4212  -0.5842   2.3879   H         1 1      0.0000
    33 H15C     4.8764  -1.5422   2.1370   H         1 1      0.0000
    34 H15B     4.9861   0.2060   1.9985   H         1 1      0.0000
@<TRIPOS>BOND
     1     1     2    1
     2     1    15    1
     3     1    16    1
     4     1    18    1
     5     2     3    1
     6     2     4    1
     7     2    14    1
     8     4     5    1
     9     4     8    2
    10     5     6    1
    11     5     7    1
    12     5    31    1
    13     8     9    1
    14     8    10    1
    15    10    11    1
    16    10    12    1
    17    10    13    1
    18    15    17    1
    19    18    19   ar
    20    18    20   ar
    21    19    21   ar
    22    19    22    1
    23    20    23   ar
    24    20    24    1
    25    21    25   ar
    26    21    26    1
    27    23    25   ar
    28    23    27    1
    29    25    28    1
    30    28    29   un
    31    28    30   un
    32    31    32    1
    33    31    33    1
    34    31    34    1
@<TRIPOS>SUBSTRUCTURE
     1 1           1 GROUP             0 ****  ****    0  
@<TRIPOS>MOLECULE
Molecule Name_00118
    34    34     1     0     0
SMALL
NO_CHARGES
****
Generated from the CSD

@<TRIPOS>ATOM
     1 C11      0.9307  -0.4121  -0.6369   C.3       1 1      0.0000
     2 C12      1.7531   0.4569   0.3648   C.3       1 1      0.0000
     3 H12A     1.4346   0.2065   1.3791   H         1 1      0.0000
     4 C13      3.2281   0.2361   0.1730   C.2       1 1      0.0000
     5 C14      3.8761  -0.9334   0.8673   C.3       1 1      0.0000
     6 H14B     3.7706  -1.8040   0.2020   H         1 1      0.0000
     7 H14A     3.2625  -1.1623   1.7515   H         1 1      0.0000
     8 N        3.9448   1.0247  -0.5742   N.pl3     1 1      0.0000
     9 HN       4.9440   0.8142  -0.6547   H         1 1      0.0000
    10 C        3.4812   2.2490  -1.3020   C.3       1 1      0.0000
    11 HC       4.3634   2.7410  -1.7140   H         1 1      0.0000
    12 HB       2.8099   1.9636  -2.1178   H         1 1      0.0000
    13 HA       2.9802   2.9028  -0.5870   H         1 1      0.0000
    14 H12B     1.5175   1.5101   0.1777   H         1 1      0.0000
    15 O1       1.4538  -1.7794  -0.4089   O.3       1 1      0.0000
    16 H11      1.1523  -0.1010  -1.6654   H         1 1      0.0000
    17 OH1      0.9733  -2.4441  -0.9704   H         1 1      0.0000
    18 C10     -0.5559  -0.2891  -0.3702   C.ar      1 1      0.0000
    19 C9      -1.4654  -1.0399  -1.1296   C.ar      1 1      0.0000
    20 C5      -1.0250   0.5910   0.6186   C.ar      1 1      0.0000
    21 C8      -2.8385  -0.9017  -0.9192   C.ar      1 1      0.0000
    22 H9      -1.1098  -1.7374  -1.8827   H         1 1      0.0000
    23 C6      -2.3933   0.7288   0.8434   C.ar      1 1      0.0000
    24 H5      -0.3231   1.1526   1.2264   H         1 1      0.0000
    25 C7      -3.2782  -0.0167   0.0634   C.ar      1 1      0.0000
    26 H8      -3.5585  -1.4703  -1.4936   H         1 1      0.0000
    27 H6      -2.7783   1.3966   1.6032   H         1 1      0.0000
    28 NO      -4.7269   0.1328   0.2913   N.pl3     1 1      0.0000
    29 ON2     -5.4500   0.5377  -0.6915   O.2       1 1      0.0000
    30 ON1     -5.1808  -0.1494   1.4608   O.2       1 1      0.0000
    31 C15      5.3484  -0.7541   1.2790   C.3       1 1      0.0000
    32 H15A     5.4782   0.0751   1.9849   H         1 1      0.0000
    33 H15C     5.6925  -1.6607   1.7856   H         1 1      0.0000
    34 H15B     6.0042  -0.6114   0.4111   H         1 1      0.0000
@<TRIPOS>BOND
     1     1     2    1
     2     1    15    1
     3     1    16    1
     4     1    18    1
     5     2     3    1
     6     2     4    1
     7     2    14    1
     8     4     5    1
     9     4     8    2
    10     5     6    1
    11     5     7    1
    12     5    31    1
    13     8     9    1
    14     8    10    1
    15    10    11    1
    16    10    12    1
    17    10    13    1
    18    15    17    1
    19    18    19   ar
    20    18    20   ar
    21    19    21   ar
    22    19    22    1
    23    20    23   ar
    24    20    24    1
    25    21    25   ar
    26    21    26    1
    27    23    25   ar
    28    23    27    1
    29    25    28    1
    30    28    29   un
    31    28    30   un
    32    31    32    1
    33    31    33    1
    34    31    34    1
@<TRIPOS>SUBSTRUCTURE
     1 1           1 GROUP             0 ****  ****    0  
@<TRIPOS>MOLECULE
Molecule Name_00119
    34    34     1     0     0
SMALL
NO_CHARGES
****
Generated from the CSD

@<TRIPOS>ATOM
     1 C11      1.1008   0.3848   0.5780   C.3       1 1      0.0000
     2 C12      1.8916   0.2453  -0.7600   C.3       1 1      0.0000
     3 H12A     1.8012   1.1833  -1.3121   H         1 1      0.0000
     4 C13      3.3286  -0.1086  -0.4934   C.2       1 1      0.0000
     5 C14      3.6858  -1.5576  -0.2874   C.3       1 1      0.0000
     6 H14B     4.6484  -1.5812   0.2460   H         1 1      0.0000
     7 H14A     3.8894  -1.9828  -1.2816   H         1 1      0.0000
     8 N        4.2573   0.8017  -0.4410   N.pl3     1 1      0.0000
     9 HN       5.2130   0.4862  -0.2512   H         1 1      0.0000
    10 C        4.0810   2.2826  -0.5806   C.3       1 1      0.0000
    11 HC       5.0668   2.7168  -0.7529   H         1 1      0.0000
    12 HB       3.4335   2.5001  -1.4357   H         1 1      0.0000
    13 HA       3.6538   2.6652   0.3473   H         1 1      0.0000
    14 H12B     1.4265  -0.5510  -1.3510   H         1 1      0.0000
    15 O1       1.4398   1.7539   1.0314   O.3       1 1      0.0000
    16 H11      1.4738  -0.3460   1.3063   H         1 1      0.0000
    17 OH1      1.0945   1.9226   1.9482   H         1 1      0.0000
    18 C10     -0.3840   0.1794   0.3561   C.ar      1 1      0.0000
    19 C9      -1.3066   1.0400   0.9690   C.ar      1 1      0.0000
    20 C5      -0.8378  -0.8831  -0.4423   C.ar      1 1      0.0000
    21 C8      -2.6772   0.8331   0.8038   C.ar      1 1      0.0000
    22 H9      -0.9632   1.8759   1.5718   H         1 1      0.0000
    23 C6      -2.2038  -1.0923  -0.6217   C.ar      1 1      0.0000
    24 H5      -0.1264  -1.5340  -0.9401   H         1 1      0.0000
    25 C7      -3.1016  -0.2324   0.0122   C.ar      1 1      0.0000
    26 H8      -3.4072   1.4840   1.2677   H         1 1      0.0000
    27 H6      -2.5773  -1.9011  -1.2365   H         1 1      0.0000
    28 NO      -4.5476  -0.4555  -0.1670   N.pl3     1 1      0.0000
    29 ON2     -4.9155  -1.4444  -0.9015   O.2       1 1      0.0000
    30 ON1     -5.3553   0.3539   0.4212   O.2       1 1      0.0000
    31 C15      2.6468  -2.4194   0.4523   C.3       1 1      0.0000
    32 H15A     1.6752  -2.4159  -0.0561   H         1 1      0.0000
    33 H15C     2.9914  -3.4576   0.4737   H         1 1      0.0000
    34 H15B     2.5225  -2.1083   1.4970   H         1 1      0.0000
@<TRIPOS>BOND
     1     1     2    1
     2     1    15    1
     3     1    16    1
     4     1    18    1
     5     2     3    1
     6     2     4    1
     7     2    14    1
     8     4     5    1
     9     4     8    2
    10     5     6    1
    11     5     7    1
    12     5    31    1
    13     8     9    1
    14     8    10    1
    15    10    11    1
    16    10    12    1
    17    10    13    1
    18    15    17    1
    19    18    19   ar
    20    18    20   ar
    21    19    21   ar
    22    19    22    1
    23    20    23   ar
    24    20    24    1
    25    21    25   ar
    26    21    26    1
    27    23    25   ar
    28    23    27    1
    29    25    28    1
    30    28    29   un
    31    28    30   un
    32    31    32    1
    33    31    33    1
    34    31    34    1
@<TRIPOS>SUBSTRUCTURE
     1 1           1 GROUP             0 ****  ****    0  
@<TRIPOS>MOLECULE
Molecule Name_00120
    34    34     1     0     0
SMALL
NO_CHARGES
****
Generated from the CSD

@<TRIPOS>ATOM
     1 C11      1.0367   0.0790  -0.8284   C.3       1 1      0.0000
     2 C12      1.8565   0.3353   0.4744   C.3       1 1      0.0000
     3 H12A     1.5534  -0.4013   1.2218   H         1 1      0.0000
     4 C13      3.3325   0.2709   0.1946   C.2       1 1      0.0000
     5 C14      4.0063  -1.0766   0.1960   C.3       1 1      0.0000
     6 H14B     5.0830  -0.9001   0.3420   H         1 1      0.0000
     7 H14A     3.9100  -1.4849  -0.8212   H         1 1      0.0000
     8 N        4.0286   1.3435  -0.0482   N.pl3     1 1      0.0000
     9 HN       5.0299   1.2223  -0.2262   H         1 1      0.0000
    10 C        3.5380   2.7587  -0.0507   C.3       1 1      0.0000
    11 HC       4.4078   3.4085  -0.1563   H         1 1      0.0000
    12 HB       2.8623   2.9155  -0.8972   H         1 1      0.0000
    13 HA       3.0348   2.9480   0.8983   H         1 1      0.0000
    14 H12B     1.6021   1.3330   0.8481   H         1 1      0.0000
    15 O1       1.5838  -1.2045  -1.3267   O.3       1 1      0.0000
    16 H11      1.2418   0.8731  -1.5571   H         1 1      0.0000
    17 OH1      1.1076  -1.5016  -2.1471   H         1 1      0.0000
    18 C10     -0.4486   0.0209  -0.5337   C.ar      1 1      0.0000
    19 C9      -1.1267   1.1823  -0.1349   C.ar      1 1      0.0000
    20 C5      -1.1414  -1.1963  -0.6369   C.ar      1 1      0.0000
    21 C8      -2.4859   1.1293   0.1788   C.ar      1 1      0.0000
    22 H9      -0.6023   2.1316  -0.0719   H         1 1      0.0000
    23 C6      -2.5005  -1.2578  -0.3356   C.ar      1 1      0.0000
    24 H5      -0.6259  -2.0907  -0.9715   H         1 1      0.0000
    25 C7      -3.1486  -0.0921   0.0748   C.ar      1 1      0.0000
    26 H8      -3.0292   2.0126   0.4892   H         1 1      0.0000
    27 H6      -3.0568  -2.1831  -0.4128   H         1 1      0.0000
    28 NO      -4.5842  -0.1544   0.4036   N.pl3     1 1      0.0000
    29 ON2     -5.3888   0.5774  -0.2818   O.2       1 1      0.0000
    30 ON1     -4.9460  -0.9363   1.3582   O.2       1 1      0.0000
    31 C15      3.4905  -2.0979   1.2255   C.3       1 1      0.0000
    32 H15A     2.4307  -2.3346   1.0721   H         1 1      0.0000
    33 H15C     4.0456  -3.0339   1.1119   H         1 1      0.0000
    34 H15B     3.6520  -1.7605   2.2569   H         1 1      0.0000
@<TRIPOS>BOND
     1     1     2    1
     2     1    15    1
     3     1    16    1
     4     1    18    1
     5     2     3    1
     6     2     4    1
     7     2    14    1
     8     4     5    1
     9     4     8    2
    10     5     6    1
    11     5     7    1
    12     5    31    1
    13     8     9    1
    14     8    10    1
    15    10    11    1
    16    10    12    1
    17    10    13    1
    18    15    17    1
    19    18    19   ar
    20    18    20   ar
    21    19    21   ar
    22    19    22    1
    23    20    23   ar
    24    20    24    1
    25    21    25   ar
    26    21    26    1
    27    23    25   ar
    28    23    27    1
    29    25    28    1
    30    28    29   un
    31    28    30   un
    32    31    32    1
    33    31    33    1
    34    31    34    1
@<TRIPOS>SUBSTRUCTURE
     1 1           1 GROUP             0 ****  ****    0  
@<TRIPOS>MOLECULE
Molecule Name_00121
    34    34     1     0     0
SMALL
NO_CHARGES
****
Generated from the CSD

@<TRIPOS>ATOM
     1 C11      1.0973  -0.6459   0.1361   C.3       1 1      0.0000
     2 C12      1.8533   0.6993   0.3689   C.3       1 1      0.0000
     3 H12A     1.7944   0.9473   1.4310   H         1 1      0.0000
     4 C13      3.2778   0.5964  -0.1016   C.2       1 1      0.0000
     5 C14      4.3027   0.0082   0.8329   C.3       1 1      0.0000
     6 H14B     4.1697   0.4984   1.8094   H         1 1      0.0000
     7 H14A     5.2902   0.3331   0.4722   H         1 1      0.0000
     8 N        3.6359   0.9983  -1.2865   N.pl3     1 1      0.0000
     9 HN       4.6244   0.9003  -1.5360   H         1 1      0.0000
    10 C        2.7675   1.6401  -2.3246   C.3       1 1      0.0000
    11 HC       3.4156   1.9710  -3.1373   H         1 1      0.0000
    12 HB       2.0472   0.9108  -2.7081   H         1 1      0.0000
    13 HA       2.2632   2.4932  -1.8689   H         1 1      0.0000
    14 H12B     1.3402   1.4828  -0.1990   H         1 1      0.0000
    15 O1       1.5461  -1.4880   1.2694   O.3       1 1      0.0000
    16 H11      1.4258  -1.0964  -0.8087   H         1 1      0.0000
    17 OH1      1.0965  -2.3744   1.2561   H         1 1      0.0000
    18 C10     -0.4023  -0.4295   0.1100   C.ar      1 1      0.0000
    19 C9      -1.2566  -1.5003  -0.1914   C.ar      1 1      0.0000
    20 C5      -0.9359   0.8446   0.3639   C.ar      1 1      0.0000
    21 C8      -2.6365  -1.3006  -0.2587   C.ar      1 1      0.0000
    22 H9      -0.8531  -2.4931  -0.3696   H         1 1      0.0000
    23 C6      -2.3127   1.0523   0.3091   C.ar      1 1      0.0000
    24 H5      -0.2798   1.6688   0.6243   H         1 1      0.0000
    25 C7      -3.1401  -0.0254  -0.0092   C.ar      1 1      0.0000
    26 H8      -3.3146  -2.1120  -0.4901   H         1 1      0.0000
    27 H6      -2.7475   2.0237   0.5061   H         1 1      0.0000
    28 NO      -4.5965   0.1918  -0.0776   N.pl3     1 1      0.0000
    29 ON2     -5.1873  -0.0500  -1.1935   O.2       1 1      0.0000
    30 ON1     -5.1892   0.6120   0.9834   O.2       1 1      0.0000
    31 C15      4.2788  -1.5219   0.9984   C.3       1 1      0.0000
    32 H15A     3.7489  -2.0148   0.1744   H         1 1      0.0000
    33 H15C     5.3053  -1.9002   0.9884   H         1 1      0.0000
    34 H15B     3.8416  -1.8256   1.9577   H         1 1      0.0000
@<TRIPOS>BOND
     1     1     2    1
     2     1    15    1
     3     1    16    1
     4     1    18    1
     5     2     3    1
     6     2     4    1
     7     2    14    1
     8     4     5    1
     9     4     8    2
    10     5     6    1
    11     5     7    1
    12     5    31    1
    13     8     9    1
    14     8    10    1
    15    10    11    1
    16    10    12    1
    17    10    13    1
    18    15    17    1
    19    18    19   ar
    20    18    20   ar
    21    19    21   ar
    22    19    22    1
    23    20    23   ar
    24    20    24    1
    25    21    25   ar
    26    21    26    1
    27    23    25   ar
    28    23    27    1
    29    25    28    1
    30    28    29   un
    31    28    30   un
    32    31    32    1
    33    31    33    1
    34    31    34    1
@<TRIPOS>SUBSTRUCTURE
     1 1           1 GROUP             0 ****  ****    0  
@<TRIPOS>MOLECULE
Molecule Name_00122
    34    34     1     0     0
SMALL
NO_CHARGES
****
Generated from the CSD

@<TRIPOS>ATOM
     1 C11      0.9530   0.0580   0.8302   C.3       1 1      0.0000
     2 C12      1.7510   0.4354  -0.4566   C.3       1 1      0.0000
     3 H12A     1.6808   1.5159  -0.6001   H         1 1      0.0000
     4 C13      3.1796  -0.0212  -0.3488   C.2       1 1      0.0000
     5 C14      3.4494  -1.4638  -0.0083   C.3       1 1      0.0000
     6 H14B     2.5712  -2.0427  -0.3327   H         1 1      0.0000
     7 H14A     3.4620  -1.5378   1.0895   H         1 1      0.0000
     8 N        4.1739   0.7956  -0.5443   N.pl3     1 1      0.0000
     9 HN       5.1197   0.4140  -0.4500   H         1 1      0.0000
    10 C        4.0947   2.2600  -0.8488   C.3       1 1      0.0000
    11 HC       5.1096   2.6585  -0.8156   H         1 1      0.0000
    12 HB       3.6784   2.4087  -1.8500   H         1 1      0.0000
    13 HA       3.4746   2.7347  -0.0873   H         1 1      0.0000
    14 H12B     1.2765  -0.0592  -1.3109   H         1 1      0.0000
    15 O1       1.3056   1.1408   1.7780   O.3       1 1      0.0000
    16 H11      1.3120  -0.9025   1.2201   H         1 1      0.0000
    17 OH1      0.8207   1.0340   2.6391   H         1 1      0.0000
    18 C10     -0.5328  -0.0249   0.5439   C.ar      1 1      0.0000
    19 C9      -1.1301  -1.2727   0.3125   C.ar      1 1      0.0000
    20 C5      -1.3068   1.1456   0.4873   C.ar      1 1      0.0000
    21 C8      -2.4897  -1.3547   0.0069   C.ar      1 1      0.0000
    22 H9      -0.5423  -2.1842   0.3740   H         1 1      0.0000
    23 C6      -2.6670   1.0737   0.1930   C.ar      1 1      0.0000
    24 H5      -0.8535   2.1099   0.6929   H         1 1      0.0000
    25 C7      -3.2341  -0.1780  -0.0497   C.ar      1 1      0.0000
    26 H8      -2.9717  -2.3066  -0.1759   H         1 1      0.0000
    27 H6      -3.2849   1.9613   0.1489   H         1 1      0.0000
    28 NO      -4.6706  -0.2580  -0.3708   N.pl3     1 1      0.0000
    29 ON2     -5.0048  -0.7697  -1.5018   O.2       1 1      0.0000
    30 ON1     -5.5041   0.1906   0.4995   O.2       1 1      0.0000
    31 C15      4.7351  -2.0754  -0.5931   C.3       1 1      0.0000
    32 H15A     5.6333  -1.5512  -0.2448   H         1 1      0.0000
    33 H15C     4.8228  -3.1137  -0.2593   H         1 1      0.0000
    34 H15B     4.7183  -2.0986  -1.6898   H         1 1      0.0000
@<TRIPOS>BOND
     1     1     2    1
     2     1    15    1
     3     1    16    1
     4     1    18    1
     5     2     3    1
     6     2     4    1
     7     2    14    1
     8     4     5    1
     9     4     8    2
    10     5     6    1
    11     5     7    1
    12     5    31    1
    13     8     9    1
    14     8    10    1
    15    10    11    1
    16    10    12    1
    17    10    13    1
    18    15    17    1
    19    18    19   ar
    20    18    20   ar
    21    19    21   ar
    22    19    22    1
    23    20    23   ar
    24    20    24    1
    25    21    25   ar
    26    21    26    1
    27    23    25   ar
    28    23    27    1
    29    25    28    1
    30    28    29   un
    31    28    30   un
    32    31    32    1
    33    31    33    1
    34    31    34    1
@<TRIPOS>SUBSTRUCTURE
     1 1           1 GROUP             0 ****  ****    0  
@<TRIPOS>MOLECULE
Molecule Name_00123
    34    34     1     0     0
SMALL
NO_CHARGES
****
Generated from the CSD

@<TRIPOS>ATOM
     1 C11      0.9436   0.3873   0.6528   C.3       1 1      0.0000
     2 C12      1.7748   0.1022  -0.6367   C.3       1 1      0.0000
     3 H12A     1.7219   0.9822  -1.2814   H         1 1      0.0000
     4 C13      3.1947  -0.2482  -0.2868   C.2       1 1      0.0000
     5 C14      3.5053  -1.6640   0.1241   C.3       1 1      0.0000
     6 H14B     2.7354  -2.3084  -0.3271   H         1 1      0.0000
     7 H14A     3.3420  -1.7264   1.2104   H         1 1      0.0000
     8 N        4.1477   0.6368  -0.3346   N.pl3     1 1      0.0000
     9 HN       5.0895   0.3261  -0.0786   H         1 1      0.0000
    10 C        4.0172   2.0886  -0.6793   C.3       1 1      0.0000
    11 HC       5.0229   2.5092  -0.7195   H         1 1      0.0000
    12 HB       3.5389   2.1960  -1.6577   H         1 1      0.0000
    13 HA       3.4328   2.5747   0.1030   H         1 1      0.0000
    14 H12B     1.3130  -0.7407  -1.1622   H         1 1      0.0000
    15 O1       1.3058   1.7843   0.9881   O.3       1 1      0.0000
    16 H11      1.2708  -0.2805   1.4593   H         1 1      0.0000
    17 OH1      0.8938   2.0636   1.8485   H         1 1      0.0000
    18 C10     -0.5382   0.1993   0.3972   C.ar      1 1      0.0000
    19 C9      -1.4562   1.1362   0.8940   C.ar      1 1      0.0000
    20 C5      -0.9947  -0.9216  -0.3152   C.ar      1 1      0.0000
    21 C8      -2.8258   0.9491   0.6993   C.ar      1 1      0.0000
    22 H9      -1.1099   2.0161   1.4289   H         1 1      0.0000
    23 C6      -2.3592  -1.1125  -0.5237   C.ar      1 1      0.0000
    24 H5      -0.2856  -1.6337  -0.7245   H         1 1      0.0000
    25 C7      -3.2532  -0.1748  -0.0051   C.ar      1 1      0.0000
    26 H8      -3.5523   1.6586   1.0742   H         1 1      0.0000
    27 H6      -2.7345  -1.9656  -1.0741   H         1 1      0.0000
    28 NO      -4.6981  -0.3775  -0.2151   N.pl3     1 1      0.0000
    29 ON2     -5.0685  -0.9991  -1.2777   O.2       1 1      0.0000
    30 ON1     -5.5025   0.0812   0.6771   O.2       1 1      0.0000
    31 C15      4.9095  -2.1860  -0.2293   C.3       1 1      0.0000
    32 H15A     5.6989  -1.5945   0.2499   H         1 1      0.0000
    33 H15C     5.0136  -3.2119   0.1365   H         1 1      0.0000
    34 H15B     5.0752  -2.2210  -1.3132   H         1 1      0.0000
@<TRIPOS>BOND
     1     1     2    1
     2     1    15    1
     3     1    16    1
     4     1    18    1
     5     2     3    1
     6     2     4    1
     7     2    14    1
     8     4     5    1
     9     4     8    2
    10     5     6    1
    11     5     7    1
    12     5    31    1
    13     8     9    1
    14     8    10    1
    15    10    11    1
    16    10    12    1
    17    10    13    1
    18    15    17    1
    19    18    19   ar
    20    18    20   ar
    21    19    21   ar
    22    19    22    1
    23    20    23   ar
    24    20    24    1
    25    21    25   ar
    26    21    26    1
    27    23    25   ar
    28    23    27    1
    29    25    28    1
    30    28    29   un
    31    28    30   un
    32    31    32    1
    33    31    33    1
    34    31    34    1
@<TRIPOS>SUBSTRUCTURE
     1 1           1 GROUP             0 ****  ****    0  
@<TRIPOS>MOLECULE
Molecule Name_00124
    34    34     1     0     0
SMALL
NO_CHARGES
****
Generated from the CSD

@<TRIPOS>ATOM
     1 C11      0.9793  -0.4165   0.7053   C.3       1 1      0.0000
     2 C12      1.7844   0.0305  -0.5544   C.3       1 1      0.0000
     3 H12A     1.3878   0.9901  -0.8932   H         1 1      0.0000
     4 C13      3.2536   0.1126  -0.2443   C.2       1 1      0.0000
     5 C14      3.9344  -1.0993   0.3368   C.3       1 1      0.0000
     6 H14B     3.1488  -1.7309   0.7791   H         1 1      0.0000
     7 H14A     4.5435  -0.7502   1.1840   H         1 1      0.0000
     8 N        3.9390   1.1960  -0.4685   N.pl3     1 1      0.0000
     9 HN       4.9345   1.1791  -0.2285   H         1 1      0.0000
    10 C        3.4238   2.4983  -0.9997   C.3       1 1      0.0000
    11 HC       4.2346   3.2250  -0.9328   H         1 1      0.0000
    12 HB       3.1268   2.3805  -2.0464   H         1 1      0.0000
    13 HA       2.5812   2.8106  -0.3814   H         1 1      0.0000
    14 H12B     1.6222  -0.7102  -1.3448   H         1 1      0.0000
    15 O1       1.4553   0.5101   1.7588   O.3       1 1      0.0000
    16 H11      1.2501  -1.4457   0.9719   H         1 1      0.0000
    17 OH1      0.9796   0.3504   2.6169   H         1 1      0.0000
    18 C10     -0.5129  -0.3239   0.4581   C.ar      1 1      0.0000
    19 C9      -1.1251  -1.1991  -0.4512   C.ar      1 1      0.0000
    20 C5      -1.2786   0.6501   1.1195   C.ar      1 1      0.0000
    21 C8      -2.4915  -1.0936  -0.7163   C.ar      1 1      0.0000
    22 H9      -0.5434  -1.9679  -0.9518   H         1 1      0.0000
    23 C6      -2.6453   0.7572   0.8694   C.ar      1 1      0.0000
    24 H5      -0.8133   1.3105   1.8439   H         1 1      0.0000
    25 C7      -3.2275  -0.1143  -0.0520   C.ar      1 1      0.0000
    26 H8      -2.9849  -1.7576  -1.4145   H         1 1      0.0000
    27 H6      -3.2569   1.4962   1.3707   H         1 1      0.0000
    28 NO      -4.6711   0.0014  -0.3267   N.pl3     1 1      0.0000
    29 ON2     -5.0336   0.2528  -1.5343   O.2       1 1      0.0000
    30 ON1     -5.4821  -0.1544   0.6589   O.2       1 1      0.0000
    31 C15      4.8002  -1.9266  -0.6302   C.3       1 1      0.0000
    32 H15A     5.6253  -1.3370  -1.0477   H         1 1      0.0000
    33 H15C     5.2496  -2.7617  -0.0846   H         1 1      0.0000
    34 H15B     4.2068  -2.3650  -1.4420   H         1 1      0.0000
@<TRIPOS>BOND
     1     1     2    1
     2     1    15    1
     3     1    16    1
     4     1    18    1
     5     2     3    1
     6     2     4    1
     7     2    14    1
     8     4     5    1
     9     4     8    2
    10     5     6    1
    11     5     7    1
    12     5    31    1
    13     8     9    1
    14     8    10    1
    15    10    11    1
    16    10    12    1
    17    10    13    1
    18    15    17    1
    19    18    19   ar
    20    18    20   ar
    21    19    21   ar
    22    19    22    1
    23    20    23   ar
    24    20    24    1
    25    21    25   ar
    26    21    26    1
    27    23    25   ar
    28    23    27    1
    29    25    28    1
    30    28    29   un
    31    28    30   un
    32    31    32    1
    33    31    33    1
    34    31    34    1
@<TRIPOS>SUBSTRUCTURE
     1 1           1 GROUP             0 ****  ****    0  
@<TRIPOS>MOLECULE
Molecule Name_00125
    34    34     1     0     0
SMALL
NO_CHARGES
****
Generated from the CSD

@<TRIPOS>ATOM
     1 C11      1.0733  -0.5141   0.2334   C.3       1 1      0.0000
     2 C12      1.8017   0.6507  -0.5068   C.3       1 1      0.0000
     3 H12A     1.5273   1.5904  -0.0226   H         1 1      0.0000
     4 C13      3.2898   0.4346  -0.5023   C.2       1 1      0.0000
     5 C14      3.8259  -0.8864  -0.9895   C.3       1 1      0.0000
     6 H14B     4.8756  -0.7233  -1.2778   H         1 1      0.0000
     7 H14A     3.2967  -1.1225  -1.9249   H         1 1      0.0000
     8 N        4.1121   1.3568  -0.0934   N.pl3     1 1      0.0000
     9 HN       5.1121   1.1366  -0.1154   H         1 1      0.0000
    10 C        3.7586   2.7038   0.4581   C.3       1 1      0.0000
    11 HC       4.6783   3.1606   0.8262   H         1 1      0.0000
    12 HB       3.3339   3.3288  -0.3335   H         1 1      0.0000
    13 HA       3.0500   2.5636   1.2754   H         1 1      0.0000
    14 H12B     1.4428   0.6761  -1.5414   H         1 1      0.0000
    15 O1       1.5844  -0.4074   1.6199   O.3       1 1      0.0000
    16 H11      1.3794  -1.4754  -0.1977   H         1 1      0.0000
    17 OH1      1.5295  -1.2818   2.0894   H         1 1      0.0000
    18 C10     -0.4314  -0.3623   0.1380   C.ar      1 1      0.0000
    19 C9      -1.2341  -0.6562   1.2501   C.ar      1 1      0.0000
    20 C5      -1.0241   0.0494  -1.0668   C.ar      1 1      0.0000
    21 C8      -2.6237  -0.5592   1.1586   C.ar      1 1      0.0000
    22 H9      -0.7822  -0.9561   2.1913   H         1 1      0.0000
    23 C6      -2.4098   0.1590  -1.1656   C.ar      1 1      0.0000
    24 H5      -0.4045   0.3039  -1.9205   H         1 1      0.0000
    25 C7      -3.1873  -0.1551  -0.0501   C.ar      1 1      0.0000
    26 H8      -3.2628  -0.7816   2.0036   H         1 1      0.0000
    27 H6      -2.8891   0.4792  -2.0817   H         1 1      0.0000
    28 NO      -4.6540  -0.0497  -0.1528   N.pl3     1 1      0.0000
    29 ON2     -5.3477  -1.1119   0.0548   O.2       1 1      0.0000
    30 ON1     -5.1522   1.0990  -0.4457   O.2       1 1      0.0000
    31 C15      3.7209  -2.0697  -0.0108   C.3       1 1      0.0000
    32 H15A     2.9561  -2.7917  -0.3216   H         1 1      0.0000
    33 H15C     4.6750  -2.6049   0.0090   H         1 1      0.0000
    34 H15B     3.5256  -1.7383   1.0167   H         1 1      0.0000
@<TRIPOS>BOND
     1     1     2    1
     2     1    15    1
     3     1    16    1
     4     1    18    1
     5     2     3    1
     6     2     4    1
     7     2    14    1
     8     4     5    1
     9     4     8    2
    10     5     6    1
    11     5     7    1
    12     5    31    1
    13     8     9    1
    14     8    10    1
    15    10    11    1
    16    10    12    1
    17    10    13    1
    18    15    17    1
    19    18    19   ar
    20    18    20   ar
    21    19    21   ar
    22    19    22    1
    23    20    23   ar
    24    20    24    1
    25    21    25   ar
    26    21    26    1
    27    23    25   ar
    28    23    27    1
    29    25    28    1
    30    28    29   un
    31    28    30   un
    32    31    32    1
    33    31    33    1
    34    31    34    1
@<TRIPOS>SUBSTRUCTURE
     1 1           1 GROUP             0 ****  ****    0  
@<TRIPOS>MOLECULE
Molecule Name_00126
    34    34     1     0     0
SMALL
NO_CHARGES
****
Generated from the CSD

@<TRIPOS>ATOM
     1 C11      0.9432  -0.0852   0.7517   C.3       1 1      0.0000
     2 C12      1.7576   0.3535  -0.5051   C.3       1 1      0.0000
     3 H12A     1.6428   1.4325  -0.6297   H         1 1      0.0000
     4 C13      3.2019  -0.0413  -0.3667   C.2       1 1      0.0000
     5 C14      3.5969  -1.4543  -0.7091   C.3       1 1      0.0000
     6 H14B     2.8517  -1.8344  -1.4245   H         1 1      0.0000
     7 H14A     3.4630  -2.0552   0.2029   H         1 1      0.0000
     8 N        4.1053   0.8049   0.0355   N.pl3     1 1      0.0000
     9 HN       5.0680   0.4633   0.1093   H         1 1      0.0000
    10 C        3.8898   2.2268   0.4543   C.3       1 1      0.0000
    11 HC       4.8713   2.6760   0.6118   H         1 1      0.0000
    12 HB       3.3637   2.7707  -0.3364   H         1 1      0.0000
    13 HA       3.3180   2.2269   1.3832   H         1 1      0.0000
    14 H12B     1.3288  -0.1442  -1.3816   H         1 1      0.0000
    15 O1       1.3373   0.9102   1.7758   O.3       1 1      0.0000
    16 H11      1.2631  -1.0853   1.0695   H         1 1      0.0000
    17 OH1      0.8472   0.7600   2.6275   H         1 1      0.0000
    18 C10     -0.5442  -0.0876   0.4622   C.ar      1 1      0.0000
    19 C9      -1.4456  -0.5207   1.4457   C.ar      1 1      0.0000
    20 C5      -1.0191   0.3206  -0.7948   C.ar      1 1      0.0000
    21 C8      -2.8140  -0.5658   1.1734   C.ar      1 1      0.0000
    22 H9      -1.0879  -0.8192   2.4271   H         1 1      0.0000
    23 C6      -2.3841   0.2889  -1.0734   C.ar      1 1      0.0000
    24 H5      -0.3270   0.6821  -1.5484   H         1 1      0.0000
    25 C7      -3.2589  -0.1618  -0.0839   C.ar      1 1      0.0000
    26 H8      -3.5278  -0.8970   1.9169   H         1 1      0.0000
    27 H6      -2.7742   0.6034  -2.0328   H         1 1      0.0000
    28 NO      -4.7028  -0.2060  -0.3772   N.pl3     1 1      0.0000
    29 ON2     -5.4860   0.5011   0.3571   O.2       1 1      0.0000
    30 ON1     -5.0931  -0.9510  -1.3499   O.2       1 1      0.0000
    31 C15      5.0180  -1.6510  -1.2666   C.3       1 1      0.0000
    32 H15A     5.7861  -1.3294  -0.5530   H         1 1      0.0000
    33 H15C     5.1851  -2.7155  -1.4563   H         1 1      0.0000
    34 H15B     5.1596  -1.1355  -2.2246   H         1 1      0.0000
@<TRIPOS>BOND
     1     1     2    1
     2     1    15    1
     3     1    16    1
     4     1    18    1
     5     2     3    1
     6     2     4    1
     7     2    14    1
     8     4     5    1
     9     4     8    2
    10     5     6    1
    11     5     7    1
    12     5    31    1
    13     8     9    1
    14     8    10    1
    15    10    11    1
    16    10    12    1
    17    10    13    1
    18    15    17    1
    19    18    19   ar
    20    18    20   ar
    21    19    21   ar
    22    19    22    1
    23    20    23   ar
    24    20    24    1
    25    21    25   ar
    26    21    26    1
    27    23    25   ar
    28    23    27    1
    29    25    28    1
    30    28    29   un
    31    28    30   un
    32    31    32    1
    33    31    33    1
    34    31    34    1
@<TRIPOS>SUBSTRUCTURE
     1 1           1 GROUP             0 ****  ****    0  
@<TRIPOS>MOLECULE
Molecule Name_00127
    34    34     1     0     0
SMALL
NO_CHARGES
****
Generated from the CSD

@<TRIPOS>ATOM
     1 C11      1.0169  -0.2029   0.7291   C.3       1 1      0.0000
     2 C12      1.8406   0.0094  -0.5791   C.3       1 1      0.0000
     3 H12A     1.4640   0.9032  -1.0813   H         1 1      0.0000
     4 C13      3.3083   0.1196  -0.2708   C.2       1 1      0.0000
     5 C14      3.9501  -0.9572   0.5648   C.3       1 1      0.0000
     6 H14B     3.3411  -1.0667   1.4752   H         1 1      0.0000
     7 H14A     4.9202  -0.5647   0.9047   H         1 1      0.0000
     8 N        4.0250   1.1136  -0.7092   N.pl3     1 1      0.0000
     9 HN       5.0173   1.1238  -0.4556   H         1 1      0.0000
    10 C        3.5507   2.2854  -1.5126   C.3       1 1      0.0000
    11 HC       4.3802   2.9897  -1.5889   H         1 1      0.0000
    12 HB       3.2610   1.9550  -2.5149   H         1 1      0.0000
    13 HA       2.7108   2.7424  -0.9878   H         1 1      0.0000
    14 H12B     1.6720  -0.8528  -1.2333   H         1 1      0.0000
    15 O1       1.4785   0.9004   1.6036   O.3       1 1      0.0000
    16 H11      1.2829  -1.1661   1.1820   H         1 1      0.0000
    17 OH1      1.0356   0.8610   2.4927   H         1 1      0.0000
    18 C10     -0.4715  -0.1593   0.4477   C.ar      1 1      0.0000
    19 C9      -1.3368   0.4576   1.3632   C.ar      1 1      0.0000
    20 C5      -0.9875  -0.7546  -0.7149   C.ar      1 1      0.0000
    21 C8      -2.7135   0.4658   1.1325   C.ar      1 1      0.0000
    22 H9      -0.9435   0.9376   2.2548   H         1 1      0.0000
    23 C6      -2.3593  -0.7431  -0.9595   C.ar      1 1      0.0000
    24 H5      -0.3182  -1.2085  -1.4385   H         1 1      0.0000
    25 C7      -3.2007  -0.1377  -0.0253   C.ar      1 1      0.0000
    26 H8      -3.4001   0.9354   1.8253   H         1 1      0.0000
    27 H6      -2.7798  -1.1907  -1.8508   H         1 1      0.0000
    28 NO      -4.6535  -0.1314  -0.2752   N.pl3     1 1      0.0000
    29 ON2     -5.2405   1.0082  -0.3723   O.2       1 1      0.0000
    30 ON1     -5.2475  -1.2671  -0.3795   O.2       1 1      0.0000
    31 C15      4.1429  -2.3253  -0.1136   C.3       1 1      0.0000
    32 H15A     4.7903  -2.2572  -0.9962   H         1 1      0.0000
    33 H15C     4.6315  -3.0082   0.5878   H         1 1      0.0000
    34 H15B     3.1864  -2.7878  -0.3872   H         1 1      0.0000
@<TRIPOS>BOND
     1     1     2    1
     2     1    15    1
     3     1    16    1
     4     1    18    1
     5     2     3    1
     6     2     4    1
     7     2    14    1
     8     4     5    1
     9     4     8    2
    10     5     6    1
    11     5     7    1
    12     5    31    1
    13     8     9    1
    14     8    10    1
    15    10    11    1
    16    10    12    1
    17    10    13    1
    18    15    17    1
    19    18    19   ar
    20    18    20   ar
    21    19    21   ar
    22    19    22    1
    23    20    23   ar
    24    20    24    1
    25    21    25   ar
    26    21    26    1
    27    23    25   ar
    28    23    27    1
    29    25    28    1
    30    28    29   un
    31    28    30   un
    32    31    32    1
    33    31    33    1
    34    31    34    1
@<TRIPOS>SUBSTRUCTURE
     1 1           1 GROUP             0 ****  ****    0  
@<TRIPOS>MOLECULE
Molecule Name_00128
    34    34     1     0     0
SMALL
NO_CHARGES
****
Generated from the CSD

@<TRIPOS>ATOM
     1 C11      0.9700  -0.8160   0.1795   C.3       1 1      0.0000
     2 C12      1.7912   0.4712   0.5018   C.3       1 1      0.0000
     3 H12A     1.7582   0.6388   1.5806   H         1 1      0.0000
     4 C13      3.2029   0.3400   0.0007   C.2       1 1      0.0000
     5 C14      3.9936  -0.8816   0.3910   C.3       1 1      0.0000
     6 H14B     3.4129  -1.7596   0.0691   H         1 1      0.0000
     7 H14A     4.0021  -0.9210   1.4906   H         1 1      0.0000
     8 N        3.7458   1.2491  -0.7561   N.pl3     1 1      0.0000
     9 HN       4.7128   1.0934  -1.0558   H         1 1      0.0000
    10 C        3.1284   2.5371  -1.2069   C.3       1 1      0.0000
    11 HC       3.9042   3.1156  -1.7104   H         1 1      0.0000
    12 HB       2.3143   2.3324  -1.9091   H         1 1      0.0000
    13 HA       2.7676   3.0701  -0.3264   H         1 1      0.0000
    14 H12B     1.3079   1.3189   0.0043   H         1 1      0.0000
    15 O1       1.3327  -1.7353   1.2833   O.3       1 1      0.0000
    16 H11      1.3049  -1.2393  -0.7757   H         1 1      0.0000
    17 OH1      0.8667  -2.6083   1.1892   H         1 1      0.0000
    18 C10     -0.5135  -0.5133   0.1172   C.ar      1 1      0.0000
    19 C9      -1.4287  -1.3790   0.7339   C.ar      1 1      0.0000
    20 C5      -0.9742   0.6183  -0.5752   C.ar      1 1      0.0000
    21 C8      -2.7995  -1.1305   0.6461   C.ar      1 1      0.0000
    22 H9      -1.0791  -2.2455   1.2882   H         1 1      0.0000
    23 C6      -2.3401   0.8809  -0.6603   C.ar      1 1      0.0000
    24 H5      -0.2675   1.3048  -1.0299   H         1 1      0.0000
    25 C7      -3.2311  -0.0046  -0.0525   C.ar      1 1      0.0000
    26 H8      -3.5239  -1.7851   1.1135   H         1 1      0.0000
    27 H6      -2.7187   1.7493  -1.1839   H         1 1      0.0000
    28 NO      -4.6773   0.2641  -0.1479   N.pl3     1 1      0.0000
    29 ON2     -5.4168  -0.6249  -0.7097   O.2       1 1      0.0000
    30 ON1     -5.1130   1.3731   0.3355   O.2       1 1      0.0000
    31 C15      5.4316  -0.9673  -0.1512   C.3       1 1      0.0000
    32 H15A     6.0509  -0.1317   0.1966   H         1 1      0.0000
    33 H15C     5.8998  -1.8853   0.2164   H         1 1      0.0000
    34 H15B     5.4563  -1.0194  -1.2468   H         1 1      0.0000
@<TRIPOS>BOND
     1     1     2    1
     2     1    15    1
     3     1    16    1
     4     1    18    1
     5     2     3    1
     6     2     4    1
     7     2    14    1
     8     4     5    1
     9     4     8    2
    10     5     6    1
    11     5     7    1
    12     5    31    1
    13     8     9    1
    14     8    10    1
    15    10    11    1
    16    10    12    1
    17    10    13    1
    18    15    17    1
    19    18    19   ar
    20    18    20   ar
    21    19    21   ar
    22    19    22    1
    23    20    23   ar
    24    20    24    1
    25    21    25   ar
    26    21    26    1
    27    23    25   ar
    28    23    27    1
    29    25    28    1
    30    28    29   un
    31    28    30   un
    32    31    32    1
    33    31    33    1
    34    31    34    1
@<TRIPOS>SUBSTRUCTURE
     1 1           1 GROUP             0 ****  ****    0  
@<TRIPOS>MOLECULE
Molecule Name_00129
    34    34     1     0     0
SMALL
NO_CHARGES
****
Generated from the CSD

@<TRIPOS>ATOM
     1 C11      1.0751  -0.3480   0.4603   C.3       1 1      0.0000
     2 C12      1.7937   0.6527  -0.4973   C.3       1 1      0.0000
     3 H12A     1.6257   1.6657  -0.1250   H         1 1      0.0000
     4 C13      3.2593   0.3317  -0.5986   C.2       1 1      0.0000
     5 C14      3.6641  -1.0736  -0.9605   C.3       1 1      0.0000
     6 H14B     4.6773  -1.0189  -1.3872   H         1 1      0.0000
     7 H14A     3.0128  -1.3924  -1.7881   H         1 1      0.0000
     8 N        4.1721   1.2345  -0.3848   N.pl3     1 1      0.0000
     9 HN       5.1500   0.9415  -0.4681   H         1 1      0.0000
    10 C        3.9565   2.6601   0.0210   C.3       1 1      0.0000
    11 HC       4.9337   3.0902   0.2446   H         1 1      0.0000
    12 HB       3.4952   3.2144  -0.8022   H         1 1      0.0000
    13 HA       3.3239   2.6709   0.9095   H         1 1      0.0000
    14 H12B     1.3352   0.5672  -1.4884   H         1 1      0.0000
    15 O1       1.5399   0.0733   1.8025   O.3       1 1      0.0000
    16 H11      1.4207  -1.3690   0.2560   H         1 1      0.0000
    17 OH1      1.1140  -0.4724   2.5159   H         1 1      0.0000
    18 C10     -0.4296  -0.2710   0.2978   C.ar      1 1      0.0000
    19 C9      -1.2563  -1.1256   1.0419   C.ar      1 1      0.0000
    20 C5      -0.9954   0.6371  -0.6118   C.ar      1 1      0.0000
    21 C8      -2.6409  -1.0905   0.8679   C.ar      1 1      0.0000
    22 H9      -0.8276  -1.8170   1.7618   H         1 1      0.0000
    23 C6      -2.3772   0.6871  -0.7856   C.ar      1 1      0.0000
    24 H5      -0.3606   1.3185  -1.1687   H         1 1      0.0000
    25 C7      -3.1769  -0.1850  -0.0458   C.ar      1 1      0.0000
    26 H8      -3.2981  -1.7410   1.4307   H         1 1      0.0000
    27 H6      -2.8366   1.3820  -1.4767   H         1 1      0.0000
    28 NO      -4.6384  -0.1422  -0.2332   N.pl3     1 1      0.0000
    29 ON2     -5.2231  -1.2139  -0.6357   O.2       1 1      0.0000
    30 ON1     -5.2412   0.9660   0.0158   O.2       1 1      0.0000
    31 C15      3.6206  -2.1116   0.1751   C.3       1 1      0.0000
    32 H15A     2.7751  -2.8017   0.0671   H         1 1      0.0000
    33 H15C     4.5316  -2.7166   0.1436   H         1 1      0.0000
    34 H15B     3.5921  -1.6386   1.1646   H         1 1      0.0000
@<TRIPOS>BOND
     1     1     2    1
     2     1    15    1
     3     1    16    1
     4     1    18    1
     5     2     3    1
     6     2     4    1
     7     2    14    1
     8     4     5    1
     9     4     8    2
    10     5     6    1
    11     5     7    1
    12     5    31    1
    13     8     9    1
    14     8    10    1
    15    10    11    1
    16    10    12    1
    17    10    13    1
    18    15    17    1
    19    18    19   ar
    20    18    20   ar
    21    19    21   ar
    22    19    22    1
    23    20    23   ar
    24    20    24    1
    25    21    25   ar
    26    21    26    1
    27    23    25   ar
    28    23    27    1
    29    25    28    1
    30    28    29   un
    31    28    30   un
    32    31    32    1
    33    31    33    1
    34    31    34    1
@<TRIPOS>SUBSTRUCTURE
     1 1           1 GROUP             0 ****  ****    0  
@<TRIPOS>MOLECULE
Molecule Name_00130
    34    34     1     0     0
SMALL
NO_CHARGES
****
Generated from the CSD

@<TRIPOS>ATOM
     1 C11      0.9467   0.1760   0.7714   C.3       1 1      0.0000
     2 C12      1.7726   0.3445  -0.5419   C.3       1 1      0.0000
     3 H12A     1.7040   1.3872  -0.8597   H         1 1      0.0000
     4 C13      3.1992  -0.0813  -0.3306   C.2       1 1      0.0000
     5 C14      3.4636  -1.4479   0.2458   C.3       1 1      0.0000
     6 H14B     2.5935  -2.0763   0.0012   H         1 1      0.0000
     7 H14A     3.4522  -1.3423   1.3410   H         1 1      0.0000
     8 N        4.1963   0.6977  -0.6353   N.pl3     1 1      0.0000
     9 HN       5.1404   0.3414  -0.4598   H         1 1      0.0000
    10 C        4.1217   2.0927  -1.1756   C.3       1 1      0.0000
    11 HC       5.1351   2.4964  -1.1860   H         1 1      0.0000
    12 HB       3.7272   2.0745  -2.1963   H         1 1      0.0000
    13 HA       3.4844   2.6818  -0.5150   H         1 1      0.0000
    14 H12B     1.3180  -0.2841  -1.3151   H         1 1      0.0000
    15 O1       1.2996   1.3849   1.5517   O.3       1 1      0.0000
    16 H11      1.2841  -0.7191   1.3085   H         1 1      0.0000
    17 OH1      0.8287   1.3954   2.4271   H         1 1      0.0000
    18 C10     -0.5349   0.0696   0.4721   C.ar      1 1      0.0000
    19 C9      -1.4576   0.7781   1.2557   C.ar      1 1      0.0000
    20 C5      -0.9865  -0.7538  -0.5721   C.ar      1 1      0.0000
    21 C8      -2.8267   0.6533   1.0138   C.ar      1 1      0.0000
    22 H9      -1.1152   1.4324   2.0525   H         1 1      0.0000
    23 C6      -2.3507  -0.8775  -0.8284   C.ar      1 1      0.0000
    24 H5      -0.2740  -1.2817  -1.1976   H         1 1      0.0000
    25 C7      -3.2492  -0.1753  -0.0240   C.ar      1 1      0.0000
    26 H8      -3.5568   1.1900   1.6060   H         1 1      0.0000
    27 H6      -2.7223  -1.5017  -1.6307   H         1 1      0.0000
    28 NO      -4.6936  -0.3104  -0.2853   N.pl3     1 1      0.0000
    29 ON2     -5.1135  -1.4235  -0.7726   O.2       1 1      0.0000
    30 ON1     -5.4476   0.6945  -0.0116   O.2       1 1      0.0000
    31 C15      4.7627  -2.1401  -0.2041   C.3       1 1      0.0000
    32 H15A     5.6522  -1.5617   0.0733   H         1 1      0.0000
    33 H15C     4.8445  -3.1098   0.2960   H         1 1      0.0000
    34 H15B     4.7699  -2.3415  -1.2825   H         1 1      0.0000
@<TRIPOS>BOND
     1     1     2    1
     2     1    15    1
     3     1    16    1
     4     1    18    1
     5     2     3    1
     6     2     4    1
     7     2    14    1
     8     4     5    1
     9     4     8    2
    10     5     6    1
    11     5     7    1
    12     5    31    1
    13     8     9    1
    14     8    10    1
    15    10    11    1
    16    10    12    1
    17    10    13    1
    18    15    17    1
    19    18    19   ar
    20    18    20   ar
    21    19    21   ar
    22    19    22    1
    23    20    23   ar
    24    20    24    1
    25    21    25   ar
    26    21    26    1
    27    23    25   ar
    28    23    27    1
    29    25    28    1
    30    28    29   un
    31    28    30   un
    32    31    32    1
    33    31    33    1
    34    31    34    1
@<TRIPOS>SUBSTRUCTURE
     1 1           1 GROUP             0 ****  ****    0  
@<TRIPOS>MOLECULE
Molecule Name_00131
    34    34     1     0     0
SMALL
NO_CHARGES
****
Generated from the CSD

@<TRIPOS>ATOM
     1 C11      0.9691  -0.4389   0.5492   C.3       1 1      0.0000
     2 C12      1.7438  -0.1647  -0.7774   C.3       1 1      0.0000
     3 H12A     1.3835   0.7770  -1.1974   H         1 1      0.0000
     4 C13      3.2267  -0.1338  -0.5299   C.2       1 1      0.0000
     5 C14      3.8673  -1.3173   0.1472   C.3       1 1      0.0000
     6 H14B     4.1190  -2.0439  -0.6404   H         1 1      0.0000
     7 H14A     3.0876  -1.8003   0.7552   H         1 1      0.0000
     8 N        3.9574   0.8820  -0.8879   N.pl3     1 1      0.0000
     9 HN       4.9598   0.8339  -0.6832   H         1 1      0.0000
    10 C        3.4888   2.1512  -1.5306   C.3       1 1      0.0000
    11 HC       4.3382   2.8348  -1.5673   H         1 1      0.0000
    12 HB       3.1433   1.9460  -2.5485   H         1 1      0.0000
    13 HA       2.6897   2.5702  -0.9178   H         1 1      0.0000
    14 H12B     1.5112  -0.9701  -1.4822   H         1 1      0.0000
    15 O1       1.5367   0.5586   1.4861   O.3       1 1      0.0000
    16 H11      1.1962  -1.4504   0.9081   H         1 1      0.0000
    17 OH1      1.1199   0.4821   2.3853   H         1 1      0.0000
    18 C10     -0.5250  -0.2868   0.3478   C.ar      1 1      0.0000
    19 C9      -1.3084   0.2992   1.3530   C.ar      1 1      0.0000
    20 C5      -1.1289  -0.7516  -0.8318   C.ar      1 1      0.0000
    21 C8      -2.6912   0.4055   1.1936   C.ar      1 1      0.0000
    22 H9      -0.8463   0.6792   2.2597   H         1 1      0.0000
    23 C6      -2.5072  -0.6412  -1.0051   C.ar      1 1      0.0000
    24 H5      -0.5224  -1.1804  -1.6228   H         1 1      0.0000
    25 C7      -3.2666  -0.0695   0.0166   C.ar      1 1      0.0000
    26 H8      -3.3154   0.8534   1.9561   H         1 1      0.0000
    27 H6      -2.9945  -0.9874  -1.9075   H         1 1      0.0000
    28 NO      -4.7261   0.0408  -0.1582   N.pl3     1 1      0.0000
    29 ON2     -5.2462   1.2162  -0.1326   O.2       1 1      0.0000
    30 ON1     -5.3926  -1.0462  -0.3245   O.2       1 1      0.0000
    31 C15      5.1048  -1.0222   1.0137   C.3       1 1      0.0000
    32 H15A     4.8725  -0.3406   1.8408   H         1 1      0.0000
    33 H15C     5.4611  -1.9553   1.4602   H         1 1      0.0000
    34 H15B     5.9360  -0.6203   0.4211   H         1 1      0.0000
@<TRIPOS>BOND
     1     1     2    1
     2     1    15    1
     3     1    16    1
     4     1    18    1
     5     2     3    1
     6     2     4    1
     7     2    14    1
     8     4     5    1
     9     4     8    2
    10     5     6    1
    11     5     7    1
    12     5    31    1
    13     8     9    1
    14     8    10    1
    15    10    11    1
    16    10    12    1
    17    10    13    1
    18    15    17    1
    19    18    19   ar
    20    18    20   ar
    21    19    21   ar
    22    19    22    1
    23    20    23   ar
    24    20    24    1
    25    21    25   ar
    26    21    26    1
    27    23    25   ar
    28    23    27    1
    29    25    28    1
    30    28    29   un
    31    28    30   un
    32    31    32    1
    33    31    33    1
    34    31    34    1
@<TRIPOS>SUBSTRUCTURE
     1 1           1 GROUP             0 ****  ****    0  
@<TRIPOS>MOLECULE
Molecule Name_00132
    34    34     1     0     0
SMALL
NO_CHARGES
****
Generated from the CSD

@<TRIPOS>ATOM
     1 C11      0.9494  -0.3209   0.7143   C.3       1 1      0.0000
     2 C12      1.7530   0.5315  -0.3166   C.3       1 1      0.0000
     3 H12A     1.6229   1.5866  -0.0658   H         1 1      0.0000
     4 C13      3.2031   0.1337  -0.3193   C.2       1 1      0.0000
     5 C14      3.5489  -1.3216  -0.4989   C.3       1 1      0.0000
     6 H14B     2.7128  -1.7885  -1.0417   H         1 1      0.0000
     7 H14A     3.5426  -1.7791   0.5018   H         1 1      0.0000
     8 N        4.1522   1.0124  -0.1742   N.pl3     1 1      0.0000
     9 HN       5.1163   0.6669  -0.1825   H         1 1      0.0000
    10 C        3.9946   2.4843   0.0543   C.3       1 1      0.0000
    11 HC       4.9838   2.8922   0.2668   H         1 1      0.0000
    12 HB       3.5916   2.9584  -0.8459   H         1 1      0.0000
    13 HA       3.3322   2.6288   0.9087   H         1 1      0.0000
    14 H12B     1.3278   0.3565  -1.3107   H         1 1      0.0000
    15 O1       1.3375   0.2677   2.0173   O.3       1 1      0.0000
    16 H11      1.2817  -1.3655   0.6698   H         1 1      0.0000
    17 OH1      0.8531  -0.1712   2.7662   H         1 1      0.0000
    18 C10     -0.5393  -0.2416   0.4426   C.ar      1 1      0.0000
    19 C9      -1.4314  -0.9948   1.2200   C.ar      1 1      0.0000
    20 C5      -1.0244   0.5655  -0.5992   C.ar      1 1      0.0000
    21 C8      -2.8005  -0.9601   0.9498   C.ar      1 1      0.0000
    22 H9      -1.0660  -1.6061   2.0403   H         1 1      0.0000
    23 C6      -2.3903   0.6150  -0.8707   C.ar      1 1      0.0000
    24 H5      -0.3397   1.1705  -1.1847   H         1 1      0.0000
    25 C7      -3.2556  -0.1564  -0.0938   C.ar      1 1      0.0000
    26 H8      -3.5072  -1.5333   1.5361   H         1 1      0.0000
    27 H6      -2.7882   1.2335  -1.6648   H         1 1      0.0000
    28 NO      -4.7003  -0.1145  -0.3834   N.pl3     1 1      0.0000
    29 ON2     -5.2804  -1.2166  -0.7020   O.2       1 1      0.0000
    30 ON1     -5.2941   1.0231  -0.3015   O.2       1 1      0.0000
    31 C15      4.8800  -1.6255  -1.2096   C.3       1 1      0.0000
    32 H15A     5.7386  -1.2172  -0.6630   H         1 1      0.0000
    33 H15C     5.0206  -2.7093  -1.2602   H         1 1      0.0000
    34 H15B     4.8876  -1.2594  -2.2438   H         1 1      0.0000
@<TRIPOS>BOND
     1     1     2    1
     2     1    15    1
     3     1    16    1
     4     1    18    1
     5     2     3    1
     6     2     4    1
     7     2    14    1
     8     4     5    1
     9     4     8    2
    10     5     6    1
    11     5     7    1
    12     5    31    1
    13     8     9    1
    14     8    10    1
    15    10    11    1
    16    10    12    1
    17    10    13    1
    18    15    17    1
    19    18    19   ar
    20    18    20   ar
    21    19    21   ar
    22    19    22    1
    23    20    23   ar
    24    20    24    1
    25    21    25   ar
    26    21    26    1
    27    23    25   ar
    28    23    27    1
    29    25    28    1
    30    28    29   un
    31    28    30   un
    32    31    32    1
    33    31    33    1
    34    31    34    1
@<TRIPOS>SUBSTRUCTURE
     1 1           1 GROUP             0 ****  ****    0  
@<TRIPOS>MOLECULE
Molecule Name_00133
    34    34     1     0     0
SMALL
NO_CHARGES
****
Generated from the CSD

@<TRIPOS>ATOM
     1 C11      1.0223   0.1341   0.8293   C.3       1 1      0.0000
     2 C12      1.8611   0.4483  -0.4485   C.3       1 1      0.0000
     3 H12A     1.7503   1.5100  -0.6800   H         1 1      0.0000
     4 C13      3.3019   0.0694  -0.2447   C.2       1 1      0.0000
     5 C14      3.6223  -1.3446   0.1651   C.3       1 1      0.0000
     6 H14B     3.0373  -1.5591   1.0725   H         1 1      0.0000
     7 H14A     4.6753  -1.3558   0.4839   H         1 1      0.0000
     8 N        4.2644   0.9285  -0.4162   N.pl3     1 1      0.0000
     9 HN       5.2209   0.5993  -0.2553   H         1 1      0.0000
    10 C        4.1310   2.3752  -0.7804   C.3       1 1      0.0000
    11 HC       5.1217   2.8260  -0.7065   H         1 1      0.0000
    12 HB       3.7657   2.4669  -1.8079   H         1 1      0.0000
    13 HA       3.4460   2.8443  -0.0729   H         1 1      0.0000
    14 H12B     1.4482  -0.1327  -1.2803   H         1 1      0.0000
    15 O1       1.3389   1.2670   1.7301   O.3       1 1      0.0000
    16 H11      1.3720  -0.8026   1.2806   H         1 1      0.0000
    17 OH1      0.8575   1.1808   2.5955   H         1 1      0.0000
    18 C10     -0.4528   0.0278   0.4990   C.ar      1 1      0.0000
    19 C9      -1.4008   0.6329   1.3372   C.ar      1 1      0.0000
    20 C5      -0.8728  -0.6937  -0.6303   C.ar      1 1      0.0000
    21 C8      -2.7637   0.5049   1.0637   C.ar      1 1      0.0000
    22 H9      -1.0831   1.2094   2.2015   H         1 1      0.0000
    23 C6      -2.2305  -0.8191  -0.9178   C.ar      1 1      0.0000
    24 H5      -0.1409  -1.1397  -1.2959   H         1 1      0.0000
    25 C7      -3.1545  -0.2219  -0.0593   C.ar      1 1      0.0000
    26 H8      -3.5129   0.9627   1.6968   H         1 1      0.0000
    27 H6      -2.5780  -1.3656  -1.7850   H         1 1      0.0000
    28 NO      -4.5921  -0.3599  -0.3542   N.pl3     1 1      0.0000
    29 ON2     -5.3339  -0.9277   0.5290   O.2       1 1      0.0000
    30 ON1     -5.0185   0.0949  -1.4789   O.2       1 1      0.0000
    31 C15      3.3799  -2.4349  -0.8940   C.3       1 1      0.0000
    32 H15A     3.9901  -2.2771  -1.7914   H         1 1      0.0000
    33 H15C     3.6664  -3.4066  -0.4808   H         1 1      0.0000
    34 H15B     2.3212  -2.5115  -1.1713   H         1 1      0.0000
@<TRIPOS>BOND
     1     1     2    1
     2     1    15    1
     3     1    16    1
     4     1    18    1
     5     2     3    1
     6     2     4    1
     7     2    14    1
     8     4     5    1
     9     4     8    2
    10     5     6    1
    11     5     7    1
    12     5    31    1
    13     8     9    1
    14     8    10    1
    15    10    11    1
    16    10    12    1
    17    10    13    1
    18    15    17    1
    19    18    19   ar
    20    18    20   ar
    21    19    21   ar
    22    19    22    1
    23    20    23   ar
    24    20    24    1
    25    21    25   ar
    26    21    26    1
    27    23    25   ar
    28    23    27    1
    29    25    28    1
    30    28    29   un
    31    28    30   un
    32    31    32    1
    33    31    33    1
    34    31    34    1
@<TRIPOS>SUBSTRUCTURE
     1 1           1 GROUP             0 ****  ****    0  
@<TRIPOS>MOLECULE
Molecule Name_00134
    34    34     1     0     0
SMALL
NO_CHARGES
****
Generated from the CSD

@<TRIPOS>ATOM
     1 C11      1.0345  -0.8095  -0.1057   C.3       1 1      0.0000
     2 C12      1.8693   0.4312   0.3400   C.3       1 1      0.0000
     3 H12A     1.9124   0.4425   1.4313   H         1 1      0.0000
     4 C13      3.2424   0.3953  -0.2720   C.2       1 1      0.0000
     5 C14      4.0627  -0.8596  -0.1240   C.3       1 1      0.0000
     6 H14B     4.8880  -0.7944  -0.8496   H         1 1      0.0000
     7 H14A     3.4350  -1.6960  -0.4663   H         1 1      0.0000
     8 N        3.7273   1.4140  -0.9208   N.pl3     1 1      0.0000
     9 HN       4.6711   1.3179  -1.3069   H         1 1      0.0000
    10 C        3.0754   2.7461  -1.1307   C.3       1 1      0.0000
    11 HC       3.8116   3.4035  -1.5950   H         1 1      0.0000
    12 HB       2.2142   2.6367  -1.7972   H         1 1      0.0000
    13 HA       2.7761   3.1375  -0.1576   H         1 1      0.0000
    14 H12B     1.3470   1.3336   0.0044   H         1 1      0.0000
    15 O1       1.4613  -1.8644   0.8430   O.3       1 1      0.0000
    16 H11      1.3159  -1.0979  -1.1262   H         1 1      0.0000
    17 OH1      0.9912  -2.7210   0.6603   H         1 1      0.0000
    18 C10     -0.4509  -0.5162  -0.0442   C.ar      1 1      0.0000
    19 C9      -1.3274  -1.4650   0.5025   C.ar      1 1      0.0000
    20 C5      -0.9531   0.6924  -0.5535   C.ar      1 1      0.0000
    21 C8      -2.7016  -1.2209   0.5252   C.ar      1 1      0.0000
    22 H9      -0.9448  -2.3937   0.9165   H         1 1      0.0000
    23 C6      -2.3223   0.9502  -0.5265   C.ar      1 1      0.0000
    24 H5      -0.2751   1.4401  -0.9520   H         1 1      0.0000
    25 C7      -3.1751  -0.0168   0.0074   C.ar      1 1      0.0000
    26 H8      -3.3966  -1.9389   0.9415   H         1 1      0.0000
    27 H6      -2.7323   1.8763  -0.9082   H         1 1      0.0000
    28 NO      -4.6251   0.2475   0.0295   N.pl3     1 1      0.0000
    29 ON2     -5.3930  -0.5668  -0.6030   O.2       1 1      0.0000
    30 ON1     -5.0355   1.2784   0.6793   O.2       1 1      0.0000
    31 C15      4.6135  -1.1546   1.2827   C.3       1 1      0.0000
    32 H15A     3.8106  -1.2775   2.0194   H         1 1      0.0000
    33 H15C     5.1716  -2.0954   1.2597   H         1 1      0.0000
    34 H15B     5.3150  -0.3817   1.6207   H         1 1      0.0000
@<TRIPOS>BOND
     1     1     2    1
     2     1    15    1
     3     1    16    1
     4     1    18    1
     5     2     3    1
     6     2     4    1
     7     2    14    1
     8     4     5    1
     9     4     8    2
    10     5     6    1
    11     5     7    1
    12     5    31    1
    13     8     9    1
    14     8    10    1
    15    10    11    1
    16    10    12    1
    17    10    13    1
    18    15    17    1
    19    18    19   ar
    20    18    20   ar
    21    19    21   ar
    22    19    22    1
    23    20    23   ar
    24    20    24    1
    25    21    25   ar
    26    21    26    1
    27    23    25   ar
    28    23    27    1
    29    25    28    1
    30    28    29   un
    31    28    30   un
    32    31    32    1
    33    31    33    1
    34    31    34    1
@<TRIPOS>SUBSTRUCTURE
     1 1           1 GROUP             0 ****  ****    0  
@<TRIPOS>MOLECULE
Molecule Name_00135
    34    34     1     0     0
SMALL
NO_CHARGES
****
Generated from the CSD

@<TRIPOS>ATOM
     1 C11      1.1073  -0.6917   0.2313   C.3       1 1      0.0000
     2 C12      1.8673   0.6349   0.5437   C.3       1 1      0.0000
     3 H12A     1.8352   0.8036   1.6223   H         1 1      0.0000
     4 C13      3.2795   0.5716   0.0309   C.2       1 1      0.0000
     5 C14      4.1356  -0.6035   0.4260   C.3       1 1      0.0000
     6 H14B     4.0160  -0.7407   1.5116   H         1 1      0.0000
     7 H14A     5.1834  -0.3006   0.2809   H         1 1      0.0000
     8 N        3.7680   1.4995  -0.7399   N.pl3     1 1      0.0000
     9 HN       4.7390   1.3909  -1.0469   H         1 1      0.0000
    10 C        3.0810   2.7492  -1.1977   C.3       1 1      0.0000
    11 HC       3.8214   3.3618  -1.7141   H         1 1      0.0000
    12 HB       2.2724   2.4956  -1.8903   H         1 1      0.0000
    13 HA       2.7008   3.2721  -0.3192   H         1 1      0.0000
    14 H12B     1.3389   1.4567   0.0485   H         1 1      0.0000
    15 O1       1.4946  -1.5772   1.3542   O.3       1 1      0.0000
    16 H11      1.4732  -1.1145  -0.7126   H         1 1      0.0000
    17 OH1      1.2040  -2.5132   1.1880   H         1 1      0.0000
    18 C10     -0.3870  -0.4551   0.1451   C.ar      1 1      0.0000
    19 C9      -1.2719  -1.3492   0.7656   C.ar      1 1      0.0000
    20 C5      -0.8871   0.6433  -0.5731   C.ar      1 1      0.0000
    21 C8      -2.6509  -1.1623   0.6561   C.ar      1 1      0.0000
    22 H9      -0.8924  -2.1900   1.3395   H         1 1      0.0000
    23 C6      -2.2619   0.8445  -0.6799   C.ar      1 1      0.0000
    24 H5      -0.2049   1.3520  -1.0310   H         1 1      0.0000
    25 C7      -3.1216  -0.0684  -0.0677   C.ar      1 1      0.0000
    26 H8      -3.3523  -1.8398   1.1261   H         1 1      0.0000
    27 H6      -2.6708   1.6864  -1.2235   H         1 1      0.0000
    28 NO      -4.5768   0.1352  -0.1860   N.pl3     1 1      0.0000
    29 ON2     -5.2694  -0.7948  -0.7411   O.2       1 1      0.0000
    30 ON1     -5.0665   1.2323   0.2721   O.2       1 1      0.0000
    31 C15      3.8621  -1.9270  -0.3106   C.3       1 1      0.0000
    32 H15A     3.2637  -1.7753  -1.2170   H         1 1      0.0000
    33 H15C     4.8135  -2.3652  -0.6267   H         1 1      0.0000
    34 H15B     3.3761  -2.6665   0.3379   H         1 1      0.0000
@<TRIPOS>BOND
     1     1     2    1
     2     1    15    1
     3     1    16    1
     4     1    18    1
     5     2     3    1
     6     2     4    1
     7     2    14    1
     8     4     5    1
     9     4     8    2
    10     5     6    1
    11     5     7    1
    12     5    31    1
    13     8     9    1
    14     8    10    1
    15    10    11    1
    16    10    12    1
    17    10    13    1
    18    15    17    1
    19    18    19   ar
    20    18    20   ar
    21    19    21   ar
    22    19    22    1
    23    20    23   ar
    24    20    24    1
    25    21    25   ar
    26    21    26    1
    27    23    25   ar
    28    23    27    1
    29    25    28    1
    30    28    29   un
    31    28    30   un
    32    31    32    1
    33    31    33    1
    34    31    34    1
@<TRIPOS>SUBSTRUCTURE
     1 1           1 GROUP             0 ****  ****    0  
