# created with PyMOL 2.3.4
@<TRIPOS>MOLECULE
Molecule Name
28 28 1                 
SMALL
USER_CHARGES
@<TRIPOS>ATOM
1	 ON1	-5.223	1.205	-0.378	O.2	1	RES1	0.000	
2	 ON2	-5.397	-1.064	-0.359	O.2	1	RES1	0.000	
3	  O1	1.498	0.617	1.544	O.3	1	RES1	0.000	
4	  C5	-1.143	0.980	0.292	C.2	1	RES1	0.000	
5	  C6	-2.516	1.087	0.074	C.2	1	RES1	0.000	
6	  C7	-3.270	-0.082	-0.030	C.2	1	RES1	0.000	
7	  C8	-2.700	-1.348	0.091	C.2	1	RES1	0.000	
8	  C9	-1.326	-1.444	0.319	C.2	1	RES1	0.000	
9	 C10	-0.543	-0.284	0.411	C.2	1	RES1	0.000	
10	 C11	0.955	-0.399	0.613	C.3	1	RES1	0.000	
11	 C12	1.723	-0.115	-0.715	C.3	1	RES1	0.000	
12	 C13	3.208	-0.107	-0.479	C.2	1	RES1	0.000	
13	 C14	3.931	-1.427	-0.403	C.3	1	RES1	0.000	
14	 C15	5.436	-1.365	-0.089	C.3	1	RES1	0.000	
15	  NO	-4.720	0.026	-0.270	N.pl3	1	RES1	0.000	
16	 OH1	1.052	0.565	2.431	 H	1	RES1	0.000	
17	  H5	-0.545	1.880	0.389	 H	1	RES1	0.000	
18	  H6	-3.002	2.050	-0.016	 H	1	RES1	0.000	
19	  H8	-3.323	-2.229	0.016	 H	1	RES1	0.000	
20	  H9	-0.872	-2.425	0.430	 H	1	RES1	0.000	
21	 H11	1.206	-1.403	0.978	 H	1	RES1	0.000	
22	H12A	1.372	0.838	-1.118	 H	1	RES1	0.000	
23	H12B	1.474	-0.906	-1.430	 H	1	RES1	0.000	
24	H14A	3.412	-2.034	0.354	 H	1	RES1	0.000	
25	H14B	3.763	-1.943	-1.360	 H	1	RES1	0.000	
26	H15A	5.633	-0.902	0.885	 H	1	RES1	0.000	
27	H15B	5.999	-0.841	-0.872	 H	1	RES1	0.000	
28	H15C	5.836	-2.383	-0.045	 H	1	RES1	0.000	
@<TRIPOS>BOND
1 3 16 1
2 4 5 ar
3 4 17 1
4 5 6 ar
5 5 18 1
6 6 15 1
7 6 7 ar
8 7 19 1
9 7 8 ar
10 8 20 1
11 4 9 ar
12 8 9 ar
13 3 10 1
14 9 10 1
15 10 11 1
16 10 21 1
17 11 12 1
18 11 22 1
19 11 23 1
20 12 13 1
21 13 14 1
22 13 24 1
23 13 25 1
24 14 26 1
25 14 27 1
26 14 28 1
27 1 15 1
28 2 15 1
@<TRIPOS>SUBSTRUCTURE
1	RES1	1	GROUP	1 ****	RES
