@<TRIPOS>MOLECULE
Molecule Name_00001_00001
    34    34     1     0     0
SMALL
NO_CHARGES
****
Generated from the CSD

@<TRIPOS>ATOM
     1 C11      1.0800  -0.0625   0.6623   C.3       1 1      0.0000
     2 C12      1.7790   0.0701  -0.6872   C.3       1 1      0.0000
     3 H12A     1.5795   1.0673  -1.0980   H         1 1      0.0000
     4 C13      3.2606  -0.1385  -0.5992   C.2       1 1      0.0000
     5 C14      3.7625  -1.5501  -0.5681   C.3       1 1      0.0000
     6 H14B     3.4512  -2.0629  -1.4865   H         1 1      0.0000
     7 H14A     3.3052  -2.0759   0.2791   H         1 1      0.0000
     8 N        4.0945   0.8789  -0.5235   N.pl3     1 1      0.0000
     9 HN       5.0861   0.6512  -0.4524   H         1 1      0.0000
    10 C        3.7572   2.2878  -0.6649   C.3       1 1      0.0000
    11 HC       4.6293   2.8637  -0.9677   H         1 1      0.0000
    12 HB       2.9828   2.4282  -1.4158   H         1 1      0.0000
    13 HA       3.3940   2.6938   0.2769   H         1 1      0.0000
    14 H12B     1.3564  -0.6663  -1.3819   H         1 1      0.0000
    15 O1       1.4792   1.0295   1.4865   O.3       1 1      0.0000
    16 H11      1.3975  -1.0033   1.1380   H         1 1      0.0000
    17 OH1      1.0478   0.9474   2.3727   H         1 1      0.0000
    18 C10     -0.4245  -0.0859   0.4875   C.ar      1 1      0.0000
    19 C9      -1.1090  -1.2900   0.3981   C.ar      1 1      0.0000
    20 C5      -1.1487   1.0962   0.4190   C.ar      1 1      0.0000
    21 C8      -2.4833  -1.3236   0.2416   C.ar      1 1      0.0000
    22 H9      -0.5562  -2.2221   0.4518   H         1 1      0.0000
    23 C6      -2.5233   1.0869   0.2627   C.ar      1 1      0.0000
    24 H5      -0.6271   2.0450   0.4892   H         1 1      0.0000
    25 C7      -3.1663  -0.1287   0.1765   C.ar      1 1      0.0000
    26 H8      -3.0110  -2.2691   0.1718   H         1 1      0.0000
    27 H6      -3.0822   2.0154   0.2093   H         1 1      0.0000
    28 NO      -4.6252  -0.1515   0.0101   N.pl3     1 1      0.0000
    29 ON2     -5.2174   0.9160  -0.0460   O.2       1 1      0.0000
    30 ON1     -5.1817  -1.2369  -0.0648   O.2       1 1      0.0000
    31 C15      5.2768  -1.6232  -0.4434   C.3       1 1      0.0000
    32 H15A     5.6122  -1.1401   0.4719   H         1 1      0.0000
    33 H15C     5.6126  -2.6579  -0.4233   H         1 1      0.0000
    34 H15B     5.7574  -1.1272  -1.2841   H         1 1      0.0000
@<TRIPOS>BOND
     1     1     2    1
     2     1    15    1
     3     1    16    1
     4     1    18    1
     5     2     3    1
     6     2     4    1
     7     2    14    1
     8     4     5    1
     9     4     8    2
    10     5     6    1
    11     5     7    1
    12     5    31    1
    13     8     9    1
    14     8    10    1
    15    10    11    1
    16    10    12    1
    17    10    13    1
    18    15    17    1
    19    18    19   ar
    20    18    20   ar
    21    19    21   ar
    22    19    22    1
    23    20    23   ar
    24    20    24    1
    25    21    25   ar
    26    21    26    1
    27    23    25   ar
    28    23    27    1
    29    25    28    1
    30    28    29    2
    31    28    30    2
    32    31    32    1
    33    31    33    1
    34    31    34    1
@<TRIPOS>SUBSTRUCTURE
     1 1           1 GROUP             0 ****  ****    0  
@<TRIPOS>MOLECULE
Molecule Name_00001_00002
    34    34     1     0     0
SMALL
NO_CHARGES
****
Generated from the CSD

@<TRIPOS>ATOM
     1 C11      1.0120  -0.3163  -0.6898   C.3       1 1      0.0000
     2 C12      1.8679  -0.0475   0.5441   C.3       1 1      0.0000
     3 H12A     1.7274  -0.8639   1.2629   H         1 1      0.0000
     4 C13      3.3267   0.0812   0.2248   C.2       1 1      0.0000
     5 C14      4.1261  -1.1809   0.1089   C.3       1 1      0.0000
     6 H14B     3.7068  -1.8000  -0.6938   H         1 1      0.0000
     7 H14A     4.0428  -1.7468   1.0450   H         1 1      0.0000
     8 N        3.8966   1.2601   0.0780   N.pl3     1 1      0.0000
     9 HN       4.8961   1.2611  -0.1245   H         1 1      0.0000
    10 C        3.2226   2.5498   0.0430   C.3       1 1      0.0000
    11 HC       3.7774   3.2573  -0.5697   H         1 1      0.0000
    12 HB       2.2224   2.4540  -0.3740   H         1 1      0.0000
    13 HA       3.1342   2.9660   1.0443   H         1 1      0.0000
    14 H12B     1.5249   0.8786   1.0216   H         1 1      0.0000
    15 O1       1.3193  -1.6198  -1.1770   O.3       1 1      0.0000
    16 H11      1.2625   0.4231  -1.4661   H         1 1      0.0000
    17 OH1      0.7847  -1.8017  -1.9889   H         1 1      0.0000
    18 C10     -0.4612  -0.1970  -0.3574   C.ar      1 1      0.0000
    19 C9      -1.1403   0.9955  -0.5653   C.ar      1 1      0.0000
    20 C5      -1.1619  -1.2794   0.1562   C.ar      1 1      0.0000
    21 C8      -2.4864   1.1151  -0.2686   C.ar      1 1      0.0000
    22 H9      -0.6058   1.8496  -0.9679   H         1 1      0.0000
    23 C6      -2.5081  -1.1830   0.4603   C.ar      1 1      0.0000
    24 H5      -0.6443  -2.2185   0.3223   H         1 1      0.0000
    25 C7      -3.1466   0.0182   0.2410   C.ar      1 1      0.0000
    26 H8      -3.0100   2.0510  -0.4333   H         1 1      0.0000
    27 H6      -3.0487  -2.0336   0.8622   H         1 1      0.0000
    28 NO      -4.5753   0.1330   0.5603   N.pl3     1 1      0.0000
    29 ON2     -5.1476  -0.8480   1.0115   O.2       1 1      0.0000
    30 ON1     -5.1282   1.2045   0.3605   O.2       1 1      0.0000
    31 C15      5.5945  -0.9110  -0.1830   C.3       1 1      0.0000
    32 H15A     6.0423  -0.3158   0.6100   H         1 1      0.0000
    33 H15C     6.1497  -1.8433  -0.2618   H         1 1      0.0000
    34 H15B     5.7082  -0.3686  -1.1193   H         1 1      0.0000
@<TRIPOS>BOND
     1     1     2    1
     2     1    15    1
     3     1    16    1
     4     1    18    1
     5     2     3    1
     6     2     4    1
     7     2    14    1
     8     4     5    1
     9     4     8    2
    10     5     6    1
    11     5     7    1
    12     5    31    1
    13     8     9    1
    14     8    10    1
    15    10    11    1
    16    10    12    1
    17    10    13    1
    18    15    17    1
    19    18    19   ar
    20    18    20   ar
    21    19    21   ar
    22    19    22    1
    23    20    23   ar
    24    20    24    1
    25    21    25   ar
    26    21    26    1
    27    23    25   ar
    28    23    27    1
    29    25    28    1
    30    28    29    2
    31    28    30    2
    32    31    32    1
    33    31    33    1
    34    31    34    1
@<TRIPOS>SUBSTRUCTURE
     1 1           1 GROUP             0 ****  ****    0  
@<TRIPOS>MOLECULE
Molecule Name_00001_00003
    34    34     1     0     0
SMALL
NO_CHARGES
****
Generated from the CSD

@<TRIPOS>ATOM
     1 C11      1.1464   0.1275   0.7830   C.3       1 1      0.0000
     2 C12      1.8892   0.0947  -0.5491   C.3       1 1      0.0000
     3 H12A     1.6686   1.0139  -1.1054   H         1 1      0.0000
     4 C13      3.3731  -0.0376  -0.3859   C.2       1 1      0.0000
     5 C14      3.9248  -1.4082  -0.1360   C.3       1 1      0.0000
     6 H14B     3.3297  -1.8988   0.6441   H         1 1      0.0000
     7 H14A     4.9534  -1.3199   0.2349   H         1 1      0.0000
     8 N        4.1660   1.0139  -0.4318   N.pl3     1 1      0.0000
     9 HN       5.1619   0.8399  -0.2977   H         1 1      0.0000
    10 C        3.7829   2.3730  -0.7852   C.3       1 1      0.0000
    11 HC       4.6439   2.9353  -1.1406   H         1 1      0.0000
    12 HB       3.0320   2.3724  -1.5723   H         1 1      0.0000
    13 HA       3.3708   2.8939   0.0765   H         1 1      0.0000
    14 H12B     1.5196  -0.7502  -1.1432   H         1 1      0.0000
    15 O1       1.4748   1.3416   1.4532   O.3       1 1      0.0000
    16 H11      1.4803  -0.7218   1.3990   H         1 1      0.0000
    17 OH1      1.0144   1.3690   2.3280   H         1 1      0.0000
    18 C10     -0.3489   0.0170   0.5666   C.ar      1 1      0.0000
    19 C9      -0.9852  -1.2148   0.6305   C.ar      1 1      0.0000
    20 C5      -1.1127   1.1462   0.3059   C.ar      1 1      0.0000
    21 C8      -2.3507  -1.3273   0.4378   C.ar      1 1      0.0000
    22 H9      -0.4011  -2.1060   0.8352   H         1 1      0.0000
    23 C6      -2.4794   1.0578   0.1099   C.ar      1 1      0.0000
    24 H5      -0.6290   2.1161   0.2548   H         1 1      0.0000
    25 C7      -3.0740  -0.1833   0.1799   C.ar      1 1      0.0000
    26 H8      -2.8406  -2.2941   0.4886   H         1 1      0.0000
    27 H6      -3.0694   1.9452  -0.0942   H         1 1      0.0000
    28 NO      -4.5239  -0.2900  -0.0268   N.pl3     1 1      0.0000
    29 ON2     -5.1523   0.7331  -0.2546   O.2       1 1      0.0000
    30 ON1     -5.0373  -1.3971   0.0382   O.2       1 1      0.0000
    31 C15      3.9173  -2.2721  -1.3881   C.3       1 1      0.0000
    32 H15A     4.5194  -1.8190  -2.1729   H         1 1      0.0000
    33 H15C     4.3225  -3.2597  -1.1777   H         1 1      0.0000
    34 H15B     2.9045  -2.3948  -1.7660   H         1 1      0.0000
@<TRIPOS>BOND
     1     1     2    1
     2     1    15    1
     3     1    16    1
     4     1    18    1
     5     2     3    1
     6     2     4    1
     7     2    14    1
     8     4     5    1
     9     4     8    2
    10     5     6    1
    11     5     7    1
    12     5    31    1
    13     8     9    1
    14     8    10    1
    15    10    11    1
    16    10    12    1
    17    10    13    1
    18    15    17    1
    19    18    19   ar
    20    18    20   ar
    21    19    21   ar
    22    19    22    1
    23    20    23   ar
    24    20    24    1
    25    21    25   ar
    26    21    26    1
    27    23    25   ar
    28    23    27    1
    29    25    28    1
    30    28    29    2
    31    28    30    2
    32    31    32    1
    33    31    33    1
    34    31    34    1
@<TRIPOS>SUBSTRUCTURE
     1 1           1 GROUP             0 ****  ****    0  
@<TRIPOS>MOLECULE
Molecule Name_00001_00004
    34    34     1     0     0
SMALL
NO_CHARGES
****
Generated from the CSD

@<TRIPOS>ATOM
     1 C11      1.2032  -0.0286   0.5457   C.3       1 1      0.0000
     2 C12      1.8516   0.2012  -0.8160   C.3       1 1      0.0000
     3 H12A     1.6019   1.2101  -1.1664   H         1 1      0.0000
     4 C13      3.3419   0.0456  -0.7857   C.2       1 1      0.0000
     5 C14      3.8975  -1.3421  -0.8912   C.3       1 1      0.0000
     6 H14B     4.9701  -1.2842  -1.1137   H         1 1      0.0000
     7 H14A     3.4111  -1.8619  -1.7258   H         1 1      0.0000
     8 N        4.1387   1.0854  -0.6436   N.pl3     1 1      0.0000
     9 HN       5.1399   0.8925  -0.6188   H         1 1      0.0000
    10 C        3.7444   2.4866  -0.6525   C.3       1 1      0.0000
    11 HC       4.5827   3.1204  -0.9343   H         1 1      0.0000
    12 HB       2.9379   2.6584  -1.3621   H         1 1      0.0000
    13 HA       3.4016   2.7970   0.3323   H         1 1      0.0000
    14 H12B     1.4335  -0.5135  -1.5356   H         1 1      0.0000
    15 O1       1.6027   1.0243   1.4192   O.3       1 1      0.0000
    16 H11      1.5609  -0.9863   0.9543   H         1 1      0.0000
    17 OH1      1.2044   0.8790   2.3127   H         1 1      0.0000
    18 C10     -0.3054  -0.0831   0.4196   C.ar      1 1      0.0000
    19 C9      -0.9616  -1.2984   0.2820   C.ar      1 1      0.0000
    20 C5      -1.0613   1.0806   0.4448   C.ar      1 1      0.0000
    21 C8      -2.3392  -1.3606   0.1692   C.ar      1 1      0.0000
    22 H9      -0.3837  -2.2165   0.2624   H         1 1      0.0000
    23 C6      -2.4399   1.0426   0.3337   C.ar      1 1      0.0000
    24 H5      -0.5620   2.0377   0.5535   H         1 1      0.0000
    25 C7      -3.0543  -0.1831   0.1972   C.ar      1 1      0.0000
    26 H8      -2.8447  -2.3145   0.0612   H         1 1      0.0000
    27 H6      -3.0237   1.9569   0.3536   H         1 1      0.0000
    28 NO      -4.5169  -0.2363   0.0781   N.pl3     1 1      0.0000
    29 ON2     -5.1378   0.8160   0.1045   O.2       1 1      0.0000
    30 ON1     -5.0479  -1.3304  -0.0423   O.2       1 1      0.0000
    31 C15      3.6943  -2.1453   0.3846   C.3       1 1      0.0000
    32 H15A     2.6881  -2.5574   0.4247   H         1 1      0.0000
    33 H15C     4.4010  -2.9708   0.4374   H         1 1      0.0000
    34 H15B     3.8391  -1.5185   1.2621   H         1 1      0.0000
@<TRIPOS>BOND
     1     1     2    1
     2     1    15    1
     3     1    16    1
     4     1    18    1
     5     2     3    1
     6     2     4    1
     7     2    14    1
     8     4     5    1
     9     4     8    2
    10     5     6    1
    11     5     7    1
    12     5    31    1
    13     8     9    1
    14     8    10    1
    15    10    11    1
    16    10    12    1
    17    10    13    1
    18    15    17    1
    19    18    19   ar
    20    18    20   ar
    21    19    21   ar
    22    19    22    1
    23    20    23   ar
    24    20    24    1
    25    21    25   ar
    26    21    26    1
    27    23    25   ar
    28    23    27    1
    29    25    28    1
    30    28    29    2
    31    28    30    2
    32    31    32    1
    33    31    33    1
    34    31    34    1
@<TRIPOS>SUBSTRUCTURE
     1 1           1 GROUP             0 ****  ****    0  
@<TRIPOS>MOLECULE
Molecule Name_00001_00005
    34    34     1     0     0
SMALL
NO_CHARGES
****
Generated from the CSD

@<TRIPOS>ATOM
     1 C11      1.0538  -0.0950  -0.8615   C.3       1 1      0.0000
     2 C12      1.9570  -0.0082   0.3649   C.3       1 1      0.0000
     3 H12A     1.8690  -0.9370   0.9416   H         1 1      0.0000
     4 C13      3.3964   0.2185   0.0138   C.2       1 1      0.0000
     5 C14      4.2236  -0.9816  -0.3339   C.3       1 1      0.0000
     6 H14B     5.1682  -0.6497  -0.7823   H         1 1      0.0000
     7 H14A     3.6912  -1.5808  -1.0828   H         1 1      0.0000
     8 N        3.9274   1.4242   0.0358   N.pl3     1 1      0.0000
     9 HN       4.9168   1.4909  -0.2026   H         1 1      0.0000
    10 C        3.2181   2.6797   0.2343   C.3       1 1      0.0000
    11 HC       3.7264   3.4939  -0.2781   H         1 1      0.0000
    12 HB       2.2036   2.6180  -0.1533   H         1 1      0.0000
    13 HA       3.1625   2.9281   1.2921   H         1 1      0.0000
    14 H12B     1.6127   0.8140   1.0042   H         1 1      0.0000
    15 O1       1.3663  -1.2924  -1.5684   O.3       1 1      0.0000
    16 H11      1.2550   0.7680  -1.5149   H         1 1      0.0000
    17 OH1      0.8007  -1.3537  -2.3773   H         1 1      0.0000
    18 C10     -0.4056  -0.0721  -0.4560   C.ar      1 1      0.0000
    19 C9      -1.1176   1.1192  -0.4378   C.ar      1 1      0.0000
    20 C5      -1.0608  -1.2428  -0.1001   C.ar      1 1      0.0000
    21 C8      -2.4516   1.1517  -0.0723   C.ar      1 1      0.0000
    22 H9      -0.6188   2.0420  -0.7152   H         1 1      0.0000
    23 C6      -2.3943  -1.2344   0.2689   C.ar      1 1      0.0000
    24 H5      -0.5173  -2.1818  -0.1114   H         1 1      0.0000
    25 C7      -3.0663  -0.0315   0.2756   C.ar      1 1      0.0000
    26 H8      -3.0011   2.0871  -0.0599   H         1 1      0.0000
    27 H6      -2.8992  -2.1537   0.5464   H         1 1      0.0000
    28 NO      -4.4818  -0.0097   0.6658   N.pl3     1 1      0.0000
    29 ON2     -5.0135  -1.0666   0.9718   O.2       1 1      0.0000
    30 ON1     -5.0647   1.0644   0.6671   O.2       1 1      0.0000
    31 C15      4.5236  -1.8489   0.8792   C.3       1 1      0.0000
    32 H15A     3.6028  -2.2107   1.3319   H         1 1      0.0000
    33 H15C     5.1245  -2.7112   0.5978   H         1 1      0.0000
    34 H15B     5.0718  -1.2846   1.6308   H         1 1      0.0000
@<TRIPOS>BOND
     1     1     2    1
     2     1    15    1
     3     1    16    1
     4     1    18    1
     5     2     3    1
     6     2     4    1
     7     2    14    1
     8     4     5    1
     9     4     8    2
    10     5     6    1
    11     5     7    1
    12     5    31    1
    13     8     9    1
    14     8    10    1
    15    10    11    1
    16    10    12    1
    17    10    13    1
    18    15    17    1
    19    18    19   ar
    20    18    20   ar
    21    19    21   ar
    22    19    22    1
    23    20    23   ar
    24    20    24    1
    25    21    25   ar
    26    21    26    1
    27    23    25   ar
    28    23    27    1
    29    25    28    1
    30    28    29    2
    31    28    30    2
    32    31    32    1
    33    31    33    1
    34    31    34    1
@<TRIPOS>SUBSTRUCTURE
     1 1           1 GROUP             0 ****  ****    0  
@<TRIPOS>MOLECULE
Molecule Name_00001_00006
    34    34     1     0     0
SMALL
NO_CHARGES
****
Generated from the CSD

@<TRIPOS>ATOM
     1 C11      1.4657   0.2982   1.7219   C.3       1 1      0.0000
     2 C12      2.4699   0.7966   0.6872   C.3       1 1      0.0000
     3 H12A     3.4464   0.9272   1.1691   H         1 1      0.0000
     4 C13      2.6169  -0.1345  -0.4780   C.2       1 1      0.0000
     5 C14      3.5158  -1.3215  -0.3093   C.3       1 1      0.0000
     6 H14B     3.1406  -1.9429   0.5132   H         1 1      0.0000
     7 H14A     4.5202  -0.9761  -0.0352   H         1 1      0.0000
     8 N        2.0022   0.0928  -1.6211   N.pl3     1 1      0.0000
     9 HN       2.1658  -0.5815  -2.3686   H         1 1      0.0000
    10 C        1.0137   1.1290  -1.8821   C.3       1 1      0.0000
    11 HC       0.1410   0.7116  -2.3800   H         1 1      0.0000
    12 HB       0.6837   1.5931  -0.9552   H         1 1      0.0000
    13 HA       1.4288   1.9056  -2.5212   H         1 1      0.0000
    14 H12B     2.1465   1.7783   0.3199   H         1 1      0.0000
    15 O1       1.4624   1.2054   2.8210   O.3       1 1      0.0000
    16 H11      1.7833  -0.6937   2.0788   H         1 1      0.0000
    17 OH1      0.8285   0.8854   3.5095   H         1 1      0.0000
    18 C10      0.0830   0.1801   1.1145   C.ar      1 1      0.0000
    19 C9      -0.3530  -1.0212   0.5729   C.ar      1 1      0.0000
    20 C5      -0.7770   1.2693   1.0926   C.ar      1 1      0.0000
    21 C8      -1.6148  -1.1417   0.0185   C.ar      1 1      0.0000
    22 H9       0.3079  -1.8816   0.5846   H         1 1      0.0000
    23 C6      -2.0432   1.1721   0.5434   C.ar      1 1      0.0000
    24 H5      -0.4503   2.2143   1.5139   H         1 1      0.0000
    25 C7      -2.4387  -0.0372   0.0145   C.ar      1 1      0.0000
    26 H8      -1.9480  -2.0841  -0.4035   H         1 1      0.0000
    27 H6      -2.7093   2.0285   0.5295   H         1 1      0.0000
    28 NO      -3.7802  -0.1526  -0.5715   N.pl3     1 1      0.0000
    29 ON2     -4.4997   0.8353  -0.5679   O.2       1 1      0.0000
    30 ON1     -4.1171  -1.2313  -1.0367   O.2       1 1      0.0000
    31 C15      3.6043  -2.1645  -1.5725   C.3       1 1      0.0000
    32 H15A     3.9951  -1.5776  -2.4012   H         1 1      0.0000
    33 H15C     4.2623  -3.0177  -1.4215   H         1 1      0.0000
    34 H15B     2.6230  -2.5392  -1.8557   H         1 1      0.0000
@<TRIPOS>BOND
     1     1     2    1
     2     1    15    1
     3     1    16    1
     4     1    18    1
     5     2     3    1
     6     2     4    1
     7     2    14    1
     8     4     5    1
     9     4     8    2
    10     5     6    1
    11     5     7    1
    12     5    31    1
    13     8     9    1
    14     8    10    1
    15    10    11    1
    16    10    12    1
    17    10    13    1
    18    15    17    1
    19    18    19   ar
    20    18    20   ar
    21    19    21   ar
    22    19    22    1
    23    20    23   ar
    24    20    24    1
    25    21    25   ar
    26    21    26    1
    27    23    25   ar
    28    23    27    1
    29    25    28    1
    30    28    29    2
    31    28    30    2
    32    31    32    1
    33    31    33    1
    34    31    34    1
@<TRIPOS>SUBSTRUCTURE
     1 1           1 GROUP             0 ****  ****    0  
@<TRIPOS>MOLECULE
Molecule Name_00001_00007
    34    34     1     0     0
SMALL
NO_CHARGES
****
Generated from the CSD

@<TRIPOS>ATOM
     1 C11      1.2648   1.4962   0.9581   C.3       1 1      0.0000
     2 C12      2.2102   1.3615  -0.2316   C.3       1 1      0.0000
     3 H12A     3.1481   1.8832  -0.0052   H         1 1      0.0000
     4 C13      2.5119  -0.0652  -0.5778   C.2       1 1      0.0000
     5 C14      1.5991  -0.7525  -1.5473   C.3       1 1      0.0000
     6 H14B     1.6202  -0.2157  -2.5037   H         1 1      0.0000
     7 H14A     0.5718  -0.7122  -1.1646   H         1 1      0.0000
     8 N        3.5256  -0.7054  -0.0310   N.pl3     1 1      0.0000
     9 HN       3.6540  -1.6780  -0.3097   H         1 1      0.0000
    10 C        4.5543  -0.1302   0.8232   C.3       1 1      0.0000
    11 HC       5.4735  -0.7089   0.7614   H         1 1      0.0000
    12 HB       4.7785   0.8921   0.5264   H         1 1      0.0000
    13 HA       4.2309  -0.1186   1.8619   H         1 1      0.0000
    14 H12B     1.7592   1.8517  -1.1032   H         1 1      0.0000
    15 O1       1.0938   2.8819   1.2441   O.3       1 1      0.0000
    16 H11      1.7189   1.0047   1.8324   H         1 1      0.0000
    17 OH1      0.4969   2.9849   2.0259   H         1 1      0.0000
    18 C10     -0.0667   0.8370   0.6629   C.ar      1 1      0.0000
    19 C9      -0.3350  -0.4497   1.1089   C.ar      1 1      0.0000
    20 C5      -1.0467   1.5088  -0.0546   C.ar      1 1      0.0000
    21 C8      -1.5487  -1.0606   0.8480   C.ar      1 1      0.0000
    22 H9       0.4211  -0.9864   1.6725   H         1 1      0.0000
    23 C6      -2.2676   0.9179  -0.3273   C.ar      1 1      0.0000
    24 H5      -0.8516   2.5159  -0.4081   H         1 1      0.0000
    25 C7      -2.4953  -0.3612   0.1314   C.ar      1 1      0.0000
    26 H8      -1.7504  -2.0670   1.1995   H         1 1      0.0000
    27 H6      -3.0283   1.4496  -0.8895   H         1 1      0.0000
    28 NO      -3.7872  -0.9991  -0.1521   N.pl3     1 1      0.0000
    29 ON2     -4.6170  -0.3668  -0.7887   O.2       1 1      0.0000
    30 ON1     -3.9749  -2.1338   0.2611   O.2       1 1      0.0000
    31 C15      1.9894  -2.2042  -1.7799   C.3       1 1      0.0000
    32 H15A     1.9557  -2.7666  -0.8491   H         1 1      0.0000
    33 H15C     1.3109  -2.6775  -2.4866   H         1 1      0.0000
    34 H15B     2.9984  -2.2728  -2.1810   H         1 1      0.0000
@<TRIPOS>BOND
     1     1     2    1
     2     1    15    1
     3     1    16    1
     4     1    18    1
     5     2     3    1
     6     2     4    1
     7     2    14    1
     8     4     5    1
     9     4     8    2
    10     5     6    1
    11     5     7    1
    12     5    31    1
    13     8     9    1
    14     8    10    1
    15    10    11    1
    16    10    12    1
    17    10    13    1
    18    15    17    1
    19    18    19   ar
    20    18    20   ar
    21    19    21   ar
    22    19    22    1
    23    20    23   ar
    24    20    24    1
    25    21    25   ar
    26    21    26    1
    27    23    25   ar
    28    23    27    1
    29    25    28    1
    30    28    29    2
    31    28    30    2
    32    31    32    1
    33    31    33    1
    34    31    34    1
@<TRIPOS>SUBSTRUCTURE
     1 1           1 GROUP             0 ****  ****    0  
@<TRIPOS>MOLECULE
Molecule Name_00001_00008
    34    34     1     0     0
SMALL
NO_CHARGES
****
Generated from the CSD

@<TRIPOS>ATOM
     1 C11      1.0766  -0.3322   0.6254   C.3       1 1      0.0000
     2 C12      1.7803   0.3099  -0.5662   C.3       1 1      0.0000
     3 H12A     1.5997   1.3916  -0.5490   H         1 1      0.0000
     4 C13      3.2576   0.0578  -0.5760   C.2       1 1      0.0000
     5 C14      3.7218  -1.3570  -0.4075   C.3       1 1      0.0000
     6 H14B     3.3176  -1.9679  -1.2241   H         1 1      0.0000
     7 H14A     3.3261  -1.7556   0.5348   H         1 1      0.0000
     8 N        4.1223   1.0443  -0.7000   N.pl3     1 1      0.0000
     9 HN       5.1098   0.7897  -0.6832   H         1 1      0.0000
    10 C        3.8124   2.4365  -0.9909   C.3       1 1      0.0000
    11 HC       4.6312   2.9083  -1.5301   H         1 1      0.0000
    12 HB       2.9160   2.5152  -1.6021   H         1 1      0.0000
    13 HA       3.6464   2.9947  -0.0719   H         1 1      0.0000
    14 H12B     1.3455  -0.0850  -1.4927   H         1 1      0.0000
    15 O1       1.4943   0.3387   1.8114   O.3       1 1      0.0000
    16 H11      1.3761  -1.3898   0.6894   H         1 1      0.0000
    17 OH1      1.0600  -0.0790   2.5956   H         1 1      0.0000
    18 C10     -0.4278  -0.2585   0.4640   C.ar      1 1      0.0000
    19 C9      -1.0598   0.9602   0.2595   C.ar      1 1      0.0000
    20 C5      -1.2030  -1.4088   0.5120   C.ar      1 1      0.0000
    21 C8      -2.4327   1.0392   0.1075   C.ar      1 1      0.0000
    22 H9      -0.4663   1.8676   0.2180   H         1 1      0.0000
    23 C6      -2.5774  -1.3538   0.3626   C.ar      1 1      0.0000
    24 H5      -0.7224  -2.3687   0.6695   H         1 1      0.0000
    25 C7      -3.1677  -0.1250   0.1626   C.ar      1 1      0.0000
    26 H8      -2.9194   1.9959  -0.0513   H         1 1      0.0000
    27 H6      -3.1765  -2.2576   0.4020   H         1 1      0.0000
    28 NO      -4.6258  -0.0538   0.0031   N.pl3     1 1      0.0000
    29 ON2     -5.2645  -1.0945   0.0542   O.2       1 1      0.0000
    30 ON1     -5.1353   1.0428  -0.1736   O.2       1 1      0.0000
    31 C15      5.2387  -1.4715  -0.4010   C.3       1 1      0.0000
    32 H15A     5.6657  -0.8913   0.4144   H         1 1      0.0000
    33 H15C     5.5467  -2.5076  -0.2774   H         1 1      0.0000
    34 H15B     5.6573  -1.1025  -1.3350   H         1 1      0.0000
@<TRIPOS>BOND
     1     1     2    1
     2     1    15    1
     3     1    16    1
     4     1    18    1
     5     2     3    1
     6     2     4    1
     7     2    14    1
     8     4     5    1
     9     4     8    2
    10     5     6    1
    11     5     7    1
    12     5    31    1
    13     8     9    1
    14     8    10    1
    15    10    11    1
    16    10    12    1
    17    10    13    1
    18    15    17    1
    19    18    19   ar
    20    18    20   ar
    21    19    21   ar
    22    19    22    1
    23    20    23   ar
    24    20    24    1
    25    21    25   ar
    26    21    26    1
    27    23    25   ar
    28    23    27    1
    29    25    28    1
    30    28    29    2
    31    28    30    2
    32    31    32    1
    33    31    33    1
    34    31    34    1
@<TRIPOS>SUBSTRUCTURE
     1 1           1 GROUP             0 ****  ****    0  
@<TRIPOS>MOLECULE
Molecule Name_00001_00009
    34    34     1     0     0
SMALL
NO_CHARGES
****
Generated from the CSD

@<TRIPOS>ATOM
     1 C11      1.0733  -0.6644   0.3847   C.3       1 1      0.0000
     2 C12      1.8353   0.5920  -0.0255   C.3       1 1      0.0000
     3 H12A     1.7436   1.3425   0.7690   H         1 1      0.0000
     4 C13      3.2871   0.3323  -0.2919   C.2       1 1      0.0000
     5 C14      4.0805  -0.3439   0.7846   C.3       1 1      0.0000
     6 H14B     3.6611  -1.3407   0.9684   H         1 1      0.0000
     7 H14A     3.9907   0.2325   1.7136   H         1 1      0.0000
     8 N        3.8569   0.7080  -1.4190   N.pl3     1 1      0.0000
     9 HN       4.8519   0.5062  -1.5161   H         1 1      0.0000
    10 C        3.1858   1.2583  -2.5876   C.3       1 1      0.0000
    11 HC       3.7658   1.0698  -3.4886   H         1 1      0.0000
    12 HB       2.2036   0.8095  -2.7184   H         1 1      0.0000
    13 HA       3.0567   2.3339  -2.4871   H         1 1      0.0000
    14 H12B     1.3761   1.0083  -0.9306   H         1 1      0.0000
    15 O1       1.4621  -1.0155   1.7101   O.3       1 1      0.0000
    16 H11      1.3456  -1.4854  -0.2964   H         1 1      0.0000
    17 OH1      0.9895  -1.8400   1.9838   H         1 1      0.0000
    18 C10     -0.4220  -0.4360   0.3028   C.ar      1 1      0.0000
    19 C9      -1.2257  -1.2709  -0.4611   C.ar      1 1      0.0000
    20 C5      -1.0184   0.6092   0.9945   C.ar      1 1      0.0000
    21 C8      -2.5929  -1.0738  -0.5408   C.ar      1 1      0.0000
    22 H9      -0.7736  -2.0931  -1.0059   H         1 1      0.0000
    23 C6      -2.3834   0.8253   0.9296   C.ar      1 1      0.0000
    24 H5      -0.4028   1.2688   1.5971   H         1 1      0.0000
    25 C7      -3.1471  -0.0245   0.1594   C.ar      1 1      0.0000
    26 H8      -3.2142  -1.7305  -1.1407   H         1 1      0.0000
    27 H6      -2.8419   1.6451   1.4728   H         1 1      0.0000
    28 NO      -4.5970   0.1951   0.0824   N.pl3     1 1      0.0000
    29 ON2     -5.0744   1.1296   0.7087   O.2       1 1      0.0000
    30 ON1     -5.2615  -0.5666  -0.6045   O.2       1 1      0.0000
    31 C15      5.5513  -0.4797   0.4208   C.3       1 1      0.0000
    32 H15A     5.9992   0.4977   0.2539   H         1 1      0.0000
    33 H15C     6.1021  -0.9731   1.2188   H         1 1      0.0000
    34 H15B     5.6714  -1.0669  -0.4872   H         1 1      0.0000
@<TRIPOS>BOND
     1     1     2    1
     2     1    15    1
     3     1    16    1
     4     1    18    1
     5     2     3    1
     6     2     4    1
     7     2    14    1
     8     4     5    1
     9     4     8    2
    10     5     6    1
    11     5     7    1
    12     5    31    1
    13     8     9    1
    14     8    10    1
    15    10    11    1
    16    10    12    1
    17    10    13    1
    18    15    17    1
    19    18    19   ar
    20    18    20   ar
    21    19    21   ar
    22    19    22    1
    23    20    23   ar
    24    20    24    1
    25    21    25   ar
    26    21    26    1
    27    23    25   ar
    28    23    27    1
    29    25    28    1
    30    28    29    2
    31    28    30    2
    32    31    32    1
    33    31    33    1
    34    31    34    1
@<TRIPOS>SUBSTRUCTURE
     1 1           1 GROUP             0 ****  ****    0  
@<TRIPOS>MOLECULE
Molecule Name_00001_00010
    34    34     1     0     0
SMALL
NO_CHARGES
****
Generated from the CSD

@<TRIPOS>ATOM
     1 C11      1.0814  -0.3341   0.5760   C.3       1 1      0.0000
     2 C12      1.7753   0.2931  -0.6292   C.3       1 1      0.0000
     3 H12A     1.5798   1.3723  -0.6340   H         1 1      0.0000
     4 C13      3.2560   0.0612  -0.6351   C.2       1 1      0.0000
     5 C14      3.7500  -1.2605  -1.1396   C.3       1 1      0.0000
     6 H14B     3.4317  -1.3896  -2.1815   H         1 1      0.0000
     7 H14A     3.2933  -2.0644  -0.5492   H         1 1      0.0000
     8 N        4.0961   0.9726  -0.1879   N.pl3     1 1      0.0000
     9 HN       5.0866   0.7311  -0.2136   H         1 1      0.0000
    10 C        3.7663   2.3327   0.2124   C.3       1 1      0.0000
    11 HC       4.6408   2.9764   0.1444   H         1 1      0.0000
    12 HB       2.9907   2.7483  -0.4271   H         1 1      0.0000
    13 HA       3.4079   2.3562   1.2394   H         1 1      0.0000
    14 H12B     1.3455  -0.1268  -1.5470   H         1 1      0.0000
    15 O1       1.5084   0.3516   1.7501   O.3       1 1      0.0000
    16 H11      1.3815  -1.3908   0.6508   H         1 1      0.0000
    17 OH1      1.0805  -0.0563   2.5429   H         1 1      0.0000
    18 C10     -0.4243  -0.2625   0.4258   C.ar      1 1      0.0000
    19 C9      -1.2593  -0.8421   1.3709   C.ar      1 1      0.0000
    20 C5      -0.9984   0.3890  -0.6570   C.ar      1 1      0.0000
    21 C8      -2.6358  -0.7801   1.2458   C.ar      1 1      0.0000
    22 H9      -0.8246  -1.3533   2.2235   H         1 1      0.0000
    23 C6      -2.3722   0.4636  -0.8028   C.ar      1 1      0.0000
    24 H5      -0.3580   0.8483  -1.4028   H         1 1      0.0000
    25 C7      -3.1674  -0.1255   0.1560   C.ar      1 1      0.0000
    26 H8      -3.2818  -1.2364   1.9886   H         1 1      0.0000
    27 H6      -2.8133   0.9741  -1.6525   H         1 1      0.0000
    28 NO      -4.6270  -0.0534   0.0120   N.pl3     1 1      0.0000
    29 ON2     -5.0840   0.5303  -0.9595   O.2       1 1      0.0000
    30 ON1     -5.3194  -0.5804   0.8701   O.2       1 1      0.0000
    31 C15      5.2643  -1.3807  -1.0608   C.3       1 1      0.0000
    32 H15A     5.6064  -1.2781  -0.0331   H         1 1      0.0000
    33 H15C     5.5943  -2.3484  -1.4329   H         1 1      0.0000
    34 H15B     5.7442  -0.6070  -1.6565   H         1 1      0.0000
@<TRIPOS>BOND
     1     1     2    1
     2     1    15    1
     3     1    16    1
     4     1    18    1
     5     2     3    1
     6     2     4    1
     7     2    14    1
     8     4     5    1
     9     4     8    2
    10     5     6    1
    11     5     7    1
    12     5    31    1
    13     8     9    1
    14     8    10    1
    15    10    11    1
    16    10    12    1
    17    10    13    1
    18    15    17    1
    19    18    19   ar
    20    18    20   ar
    21    19    21   ar
    22    19    22    1
    23    20    23   ar
    24    20    24    1
    25    21    25   ar
    26    21    26    1
    27    23    25   ar
    28    23    27    1
    29    25    28    1
    30    28    29    2
    31    28    30    2
    32    31    32    1
    33    31    33    1
    34    31    34    1
@<TRIPOS>SUBSTRUCTURE
     1 1           1 GROUP             0 ****  ****    0  
@<TRIPOS>MOLECULE
Molecule Name_00001_00011
    34    34     1     0     0
SMALL
NO_CHARGES
****
Generated from the CSD

@<TRIPOS>ATOM
     1 C11      1.0472  -0.7053  -0.1890   C.3       1 1      0.0000
     2 C12      1.8451   0.4960   0.3085   C.3       1 1      0.0000
     3 H12A     1.7079   0.5937   1.3923   H         1 1      0.0000
     4 C13      3.3090   0.3895   0.0054   C.2       1 1      0.0000
     5 C14      4.1589  -0.3997   0.9542   C.3       1 1      0.0000
     6 H14B     3.7938  -1.4336   0.9895   H         1 1      0.0000
     7 H14A     4.0613   0.0233   1.9617   H         1 1      0.0000
     8 N        3.8396   0.9894  -1.0409   N.pl3     1 1      0.0000
     9 HN       4.8454   0.8786  -1.1684   H         1 1      0.0000
    10 C        3.1197   1.6792  -2.1015   C.3       1 1      0.0000
    11 HC       3.6705   1.6256  -3.0382   H         1 1      0.0000
    12 HB       2.1404   1.2329  -2.2598   H         1 1      0.0000
    13 HA       2.9779   2.7286  -1.8519   H         1 1      0.0000
    14 H12B     1.4498   1.4058  -0.1600   H         1 1      0.0000
    15 O1       1.4385  -1.8502   0.5641   O.3       1 1      0.0000
    16 H11      1.2855  -0.8775  -1.2500   H         1 1      0.0000
    17 OH1      0.9423  -2.6420   0.2401   H         1 1      0.0000
    18 C10     -0.4407  -0.4537  -0.0562   C.ar      1 1      0.0000
    19 C9      -1.3610  -1.3838  -0.5195   C.ar      1 1      0.0000
    20 C5      -0.9128   0.7092   0.5364   C.ar      1 1      0.0000
    21 C8      -2.7221  -1.1661  -0.4007   C.ar      1 1      0.0000
    22 H9      -1.0064  -2.2982  -0.9835   H         1 1      0.0000
    23 C6      -2.2694   0.9481   0.6661   C.ar      1 1      0.0000
    24 H5      -0.2050   1.4444   0.9048   H         1 1      0.0000
    25 C7      -3.1513   0.0012   0.1924   C.ar      1 1      0.0000
    26 H8      -3.4352  -1.8978  -0.7660   H         1 1      0.0000
    27 H6      -2.6305   1.8600   1.1300   H         1 1      0.0000
    28 NO      -4.5936   0.2437   0.3240   N.pl3     1 1      0.0000
    29 ON2     -4.9594   1.2833   0.8521   O.2       1 1      0.0000
    30 ON1     -5.3637  -0.6050  -0.1006   O.2       1 1      0.0000
    31 C15      5.6262  -0.4011   0.5526   C.3       1 1      0.0000
    32 H15A     6.0210   0.6124   0.5307   H         1 1      0.0000
    33 H15C     6.2185  -0.9805   1.2578   H         1 1      0.0000
    34 H15B     5.7550  -0.8365  -0.4361   H         1 1      0.0000
@<TRIPOS>BOND
     1     1     2    1
     2     1    15    1
     3     1    16    1
     4     1    18    1
     5     2     3    1
     6     2     4    1
     7     2    14    1
     8     4     5    1
     9     4     8    2
    10     5     6    1
    11     5     7    1
    12     5    31    1
    13     8     9    1
    14     8    10    1
    15    10    11    1
    16    10    12    1
    17    10    13    1
    18    15    17    1
    19    18    19   ar
    20    18    20   ar
    21    19    21   ar
    22    19    22    1
    23    20    23   ar
    24    20    24    1
    25    21    25   ar
    26    21    26    1
    27    23    25   ar
    28    23    27    1
    29    25    28    1
    30    28    29    2
    31    28    30    2
    32    31    32    1
    33    31    33    1
    34    31    34    1
@<TRIPOS>SUBSTRUCTURE
     1 1           1 GROUP             0 ****  ****    0  
@<TRIPOS>MOLECULE
Molecule Name_00001_00012
    34    34     1     0     0
SMALL
NO_CHARGES
****
Generated from the CSD

@<TRIPOS>ATOM
     1 C11      1.0202   0.1720  -0.6982   C.3       1 1      0.0000
     2 C12      1.8544  -0.4815   0.3993   C.3       1 1      0.0000
     3 H12A     1.6614  -1.5612   0.4016   H         1 1      0.0000
     4 C13      3.3250  -0.2449   0.2327   C.2       1 1      0.0000
     5 C14      4.1804  -1.4197  -0.1327   C.3       1 1      0.0000
     6 H14B     3.8412  -1.8268  -1.0932   H         1 1      0.0000
     7 H14A     4.0569  -2.2039   0.6244   H         1 1      0.0000
     8 N        3.8558   0.9455   0.4267   N.pl3     1 1      0.0000
     9 HN       4.8659   1.0191   0.3066   H         1 1      0.0000
    10 C        3.1345   2.1876   0.6627   C.3       1 1      0.0000
    11 HC       2.9829   2.7275  -0.2697   H         1 1      0.0000
    12 HB       2.1588   1.9925   1.1023   H         1 1      0.0000
    13 HA       3.6893   2.8327   1.3408   H         1 1      0.0000
    14 H12B     1.5380  -0.0852   1.3720   H         1 1      0.0000
    15 O1       1.2857  -0.4992  -1.9270   O.3       1 1      0.0000
    16 H11      1.3212   1.2266  -0.7953   H         1 1      0.0000
    17 OH1      0.7651  -0.0744  -2.6527   H         1 1      0.0000
    18 C10     -0.4548   0.1134  -0.3580   C.ar      1 1      0.0000
    19 C9      -1.0709  -1.0993  -0.0819   C.ar      1 1      0.0000
    20 C5      -1.2178   1.2718  -0.3104   C.ar      1 1      0.0000
    21 C8      -2.4165  -1.1646   0.2331   C.ar      1 1      0.0000
    22 H9      -0.4865  -2.0130  -0.1136   H         1 1      0.0000
    23 C6      -2.5649   1.2307   0.0023   C.ar      1 1      0.0000
    24 H5      -0.7492   2.2272  -0.5223   H         1 1      0.0000
    25 C7      -3.1403   0.0074   0.2689   C.ar      1 1      0.0000
    26 H8      -2.8910  -2.1166   0.4471   H         1 1      0.0000
    27 H6      -3.1547   2.1408   0.0368   H         1 1      0.0000
    28 NO      -4.5694  -0.0490   0.6016   N.pl3     1 1      0.0000
    29 ON2     -5.1984   0.9984   0.6295   O.2       1 1      0.0000
    30 ON1     -5.0659  -1.1409   0.8358   O.2       1 1      0.0000
    31 C15      5.6530  -1.0531  -0.2371   C.3       1 1      0.0000
    32 H15A     6.0222  -0.6660   0.7104   H         1 1      0.0000
    33 H15C     6.2493  -1.9234  -0.5030   H         1 1      0.0000
    34 H15B     5.8077  -0.2909  -0.9979   H         1 1      0.0000
@<TRIPOS>BOND
     1     1     2    1
     2     1    15    1
     3     1    16    1
     4     1    18    1
     5     2     3    1
     6     2     4    1
     7     2    14    1
     8     4     5    1
     9     4     8    2
    10     5     6    1
    11     5     7    1
    12     5    31    1
    13     8     9    1
    14     8    10    1
    15    10    11    1
    16    10    12    1
    17    10    13    1
    18    15    17    1
    19    18    19   ar
    20    18    20   ar
    21    19    21   ar
    22    19    22    1
    23    20    23   ar
    24    20    24    1
    25    21    25   ar
    26    21    26    1
    27    23    25   ar
    28    23    27    1
    29    25    28    1
    30    28    29    2
    31    28    30    2
    32    31    32    1
    33    31    33    1
    34    31    34    1
@<TRIPOS>SUBSTRUCTURE
     1 1           1 GROUP             0 ****  ****    0  
@<TRIPOS>MOLECULE
Molecule Name_00001_00013
    34    34     1     0     0
SMALL
NO_CHARGES
****
Generated from the CSD

@<TRIPOS>ATOM
     1 C11      1.0748  -0.1130   0.6966   C.3       1 1      0.0000
     2 C12      1.7832   0.1293  -0.6326   C.3       1 1      0.0000
     3 H12A     1.5912   1.1587  -0.9589   H         1 1      0.0000
     4 C13      3.2632  -0.0937  -0.5536   C.2       1 1      0.0000
     5 C14      3.7405  -1.3768   0.0558   C.3       1 1      0.0000
     6 H14B     3.3508  -2.2194  -0.5285   H         1 1      0.0000
     7 H14A     3.3399  -1.4627   1.0734   H         1 1      0.0000
     8 N        4.1186   0.8145  -0.9775   N.pl3     1 1      0.0000
     9 HN       5.1085   0.5910  -0.8754   H         1 1      0.0000
    10 C        3.7970   2.0395  -1.6950   C.3       1 1      0.0000
    11 HC       4.6160   2.3276  -2.3508   H         1 1      0.0000
    12 HB       2.9058   1.9095  -2.3051   H         1 1      0.0000
    13 HA       3.6161   2.8570  -1.0002   H         1 1      0.0000
    14 H12B     1.3617  -0.5435  -1.3896   H         1 1      0.0000
    15 O1       1.4739   0.9034   1.6125   O.3       1 1      0.0000
    16 H11      1.3848  -1.0923   1.0930   H         1 1      0.0000
    17 OH1      1.0363   0.7489   2.4859   H         1 1      0.0000
    18 C10     -0.4286  -0.1136   0.5113   C.ar      1 1      0.0000
    19 C9      -1.0479  -1.0907  -0.2557   C.ar      1 1      0.0000
    20 C5      -1.2169   0.8598   1.1094   C.ar      1 1      0.0000
    21 C8      -2.4205  -1.1031  -0.4292   C.ar      1 1      0.0000
    22 H9      -0.4445  -1.8589  -0.7278   H         1 1      0.0000
    23 C6      -2.5912   0.8672   0.9498   C.ar      1 1      0.0000
    24 H5      -0.7467   1.6289   1.7132   H         1 1      0.0000
    25 C7      -3.1683  -0.1190   0.1798   C.ar      1 1      0.0000
    26 H8      -2.8969  -1.8700  -1.0308   H         1 1      0.0000
    27 H6      -3.2004   1.6320   1.4201   H         1 1      0.0000
    28 NO      -4.6261  -0.1213   0.0027   N.pl3     1 1      0.0000
    29 ON2     -5.2763   0.7576   0.5487   O.2       1 1      0.0000
    30 ON1     -5.1238  -1.0022  -0.6829   O.2       1 1      0.0000
    31 C15      5.2584  -1.4635   0.1071   C.3       1 1      0.0000
    32 H15A     5.6714  -0.6502   0.7001   H         1 1      0.0000
    33 H15C     5.5761  -2.4036   0.5534   H         1 1      0.0000
    34 H15B     5.6822  -1.4028  -0.8931   H         1 1      0.0000
@<TRIPOS>BOND
     1     1     2    1
     2     1    15    1
     3     1    16    1
     4     1    18    1
     5     2     3    1
     6     2     4    1
     7     2    14    1
     8     4     5    1
     9     4     8    2
    10     5     6    1
    11     5     7    1
    12     5    31    1
    13     8     9    1
    14     8    10    1
    15    10    11    1
    16    10    12    1
    17    10    13    1
    18    15    17    1
    19    18    19   ar
    20    18    20   ar
    21    19    21   ar
    22    19    22    1
    23    20    23   ar
    24    20    24    1
    25    21    25   ar
    26    21    26    1
    27    23    25   ar
    28    23    27    1
    29    25    28    1
    30    28    29    2
    31    28    30    2
    32    31    32    1
    33    31    33    1
    34    31    34    1
@<TRIPOS>SUBSTRUCTURE
     1 1           1 GROUP             0 ****  ****    0  
@<TRIPOS>MOLECULE
Molecule Name_00001_00014
    34    34     1     0     0
SMALL
NO_CHARGES
****
Generated from the CSD

@<TRIPOS>ATOM
     1 C11      1.0221  -0.2433  -0.6784   C.3       1 1      0.0000
     2 C12      1.8685  -0.0998   0.5827   C.3       1 1      0.0000
     3 H12A     1.7196  -0.9822   1.2169   H         1 1      0.0000
     4 C13      3.3302   0.0541   0.2892   C.2       1 1      0.0000
     5 C14      4.2371  -1.0777   0.6660   C.3       1 1      0.0000
     6 H14B     3.9267  -1.9818   0.1279   H         1 1      0.0000
     7 H14A     4.1363  -1.2772   1.7399   H         1 1      0.0000
     8 N        3.8097   1.1543  -0.2548   N.pl3     1 1      0.0000
     9 HN       4.8174   1.1847  -0.4092   H         1 1      0.0000
    10 C        3.0357   2.2707  -0.7778   C.3       1 1      0.0000
    11 HC       2.8732   2.1584  -1.8477   H         1 1      0.0000
    12 HB       2.0636   2.3299  -0.2932   H         1 1      0.0000
    13 HA       3.5556   3.2118  -0.6115   H         1 1      0.0000
    14 H12B     1.5243   0.7764   1.1459   H         1 1      0.0000
    15 O1       1.3298  -1.4939  -1.2886   O.3       1 1      0.0000
    16 H11      1.2811   0.5678  -1.3764   H         1 1      0.0000
    17 OH1      0.8014  -1.5934  -2.1187   H         1 1      0.0000
    18 C10     -0.4534  -0.1519  -0.3477   C.ar      1 1      0.0000
    19 C9      -0.9956   1.0226   0.1555   C.ar      1 1      0.0000
    20 C5      -1.2931  -1.2390  -0.5466   C.ar      1 1      0.0000
    21 C8      -2.3423   1.1186   0.4580   C.ar      1 1      0.0000
    22 H9      -0.3515   1.8811   0.3145   H         1 1      0.0000
    23 C6      -2.6428  -1.1660  -0.2513   C.ar      1 1      0.0000
    24 H5      -0.8835  -2.1631  -0.9410   H         1 1      0.0000
    25 C7      -3.1428   0.0171   0.2477   C.ar      1 1      0.0000
    26 H8      -2.7583   2.0401   0.8516   H         1 1      0.0000
    27 H6      -3.2925  -2.0205  -0.4090   H         1 1      0.0000
    28 NO      -4.5737   0.1067   0.5654   N.pl3     1 1      0.0000
    29 ON2     -5.2713  -0.8783   0.3738   O.2       1 1      0.0000
    30 ON1     -5.0029   1.1622   1.0072   O.2       1 1      0.0000
    31 C15      5.6948  -0.7819   0.3471   C.3       1 1      0.0000
    32 H15A     6.0363   0.0996   0.8858   H         1 1      0.0000
    33 H15C     6.3292  -1.6191   0.6306   H         1 1      0.0000
    34 H15B     5.8278  -0.6011  -0.7175   H         1 1      0.0000
@<TRIPOS>BOND
     1     1     2    1
     2     1    15    1
     3     1    16    1
     4     1    18    1
     5     2     3    1
     6     2     4    1
     7     2    14    1
     8     4     5    1
     9     4     8    2
    10     5     6    1
    11     5     7    1
    12     5    31    1
    13     8     9    1
    14     8    10    1
    15    10    11    1
    16    10    12    1
    17    10    13    1
    18    15    17    1
    19    18    19   ar
    20    18    20   ar
    21    19    21   ar
    22    19    22    1
    23    20    23   ar
    24    20    24    1
    25    21    25   ar
    26    21    26    1
    27    23    25   ar
    28    23    27    1
    29    25    28    1
    30    28    29    2
    31    28    30    2
    32    31    32    1
    33    31    33    1
    34    31    34    1
@<TRIPOS>SUBSTRUCTURE
     1 1           1 GROUP             0 ****  ****    0  
@<TRIPOS>MOLECULE
Molecule Name_00001_00015
    34    34     1     0     0
SMALL
NO_CHARGES
****
Generated from the CSD

@<TRIPOS>ATOM
     1 C11      1.5874   0.1051   1.5144   C.3       1 1      0.0000
     2 C12      2.5166   0.7793   0.5098   C.3       1 1      0.0000
     3 H12A     3.5129   0.8834   0.9566   H         1 1      0.0000
     4 C13      2.6318   0.0209  -0.7778   C.2       1 1      0.0000
     5 C14      3.6379  -1.0876  -0.8433   C.3       1 1      0.0000
     6 H14B     4.5882  -0.7362  -0.4226   H         1 1      0.0000
     7 H14A     3.8150  -1.3512  -1.8933   H         1 1      0.0000
     8 N        1.8969   0.3317  -1.8265   N.pl3     1 1      0.0000
     9 HN       2.0459  -0.2243  -2.6684   H         1 1      0.0000
    10 C        0.8059   1.2945  -1.8651   C.3       1 1      0.0000
    11 HC      -0.1224   0.8122  -2.1645   H         1 1      0.0000
    12 HB       0.6517   1.7459  -0.8875   H         1 1      0.0000
    13 HA       1.0186   2.0899  -2.5763   H         1 1      0.0000
    14 H12B     2.1408   1.7876   0.2967   H         1 1      0.0000
    15 O1       1.6497   0.8269   2.7417   O.3       1 1      0.0000
    16 H11      1.9360  -0.9247   1.6879   H         1 1      0.0000
    17 OH1      1.0655   0.3903   3.4098   H         1 1      0.0000
    18 C10      0.1684   0.0590   0.9860   C.ar      1 1      0.0000
    19 C9      -0.2986  -1.0569   0.3055   C.ar      1 1      0.0000
    20 C5      -0.6942   1.1294   1.1769   C.ar      1 1      0.0000
    21 C8      -1.5935  -1.1115  -0.1787   C.ar      1 1      0.0000
    22 H9       0.3641  -1.9020   0.1503   H         1 1      0.0000
    23 C6      -1.9932   1.0971   0.7016   C.ar      1 1      0.0000
    24 H5      -0.3434   2.0078   1.7086   H         1 1      0.0000
    25 C7      -2.4189  -0.0281   0.0298   C.ar      1 1      0.0000
    26 H8      -1.9508  -1.9873  -0.7103   H         1 1      0.0000
    27 H6      -2.6612   1.9383   0.8543   H         1 1      0.0000
    28 NO      -3.7953  -0.0741  -0.4797   N.pl3     1 1      0.0000
    29 ON2     -4.5158   0.8941  -0.2873   O.2       1 1      0.0000
    30 ON1     -4.1588  -1.0785  -1.0735   O.2       1 1      0.0000
    31 C15      3.1839  -2.3267  -0.0865   C.3       1 1      0.0000
    32 H15A     2.1449  -2.5573  -0.3123   H         1 1      0.0000
    33 H15C     3.7894  -3.1885  -0.3591   H         1 1      0.0000
    34 H15B     3.2721  -2.1765   0.9875   H         1 1      0.0000
@<TRIPOS>BOND
     1     1     2    1
     2     1    15    1
     3     1    16    1
     4     1    18    1
     5     2     3    1
     6     2     4    1
     7     2    14    1
     8     4     5    1
     9     4     8    2
    10     5     6    1
    11     5     7    1
    12     5    31    1
    13     8     9    1
    14     8    10    1
    15    10    11    1
    16    10    12    1
    17    10    13    1
    18    15    17    1
    19    18    19   ar
    20    18    20   ar
    21    19    21   ar
    22    19    22    1
    23    20    23   ar
    24    20    24    1
    25    21    25   ar
    26    21    26    1
    27    23    25   ar
    28    23    27    1
    29    25    28    1
    30    28    29    2
    31    28    30    2
    32    31    32    1
    33    31    33    1
    34    31    34    1
@<TRIPOS>SUBSTRUCTURE
     1 1           1 GROUP             0 ****  ****    0  
@<TRIPOS>MOLECULE
Molecule Name_00001_00016
    34    34     1     0     0
SMALL
NO_CHARGES
****
Generated from the CSD

@<TRIPOS>ATOM
     1 C11      1.4377  -0.0751   1.6124   C.3       1 1      0.0000
     2 C12      2.4406   0.5077   0.6215   C.3       1 1      0.0000
     3 H12A     3.4354   0.5197   1.0833   H         1 1      0.0000
     4 C13      2.5041  -0.2606  -0.6637   C.2       1 1      0.0000
     5 C14      3.3388  -1.5049  -0.6885   C.3       1 1      0.0000
     6 H14B     3.1098  -2.0737  -1.5981   H         1 1      0.0000
     7 H14A     3.0756  -2.1318   0.1723   H         1 1      0.0000
     8 N        1.8732   0.1536  -1.7438   N.pl3     1 1      0.0000
     9 HN       1.9787  -0.4191  -2.5811   H         1 1      0.0000
    10 C        0.9381   1.2660  -1.8279   C.3       1 1      0.0000
    11 HC       0.0305   0.9671  -2.3482   H         1 1      0.0000
    12 HB       0.6593   1.6146  -0.8359   H         1 1      0.0000
    13 HA       1.3792   2.1004  -2.3692   H         1 1      0.0000
    14 H12B     2.1634   1.5462   0.4022   H         1 1      0.0000
    15 O1       1.5145   0.6712   2.8241   O.3       1 1      0.0000
    16 H11      1.7083  -1.1219   1.8202   H         1 1      0.0000
    17 OH1      0.8821   0.2930   3.4837   H         1 1      0.0000
    18 C10      0.0350  -0.0363   1.0417   C.ar      1 1      0.0000
    19 C9      -0.4821  -1.1274   0.3571   C.ar      1 1      0.0000
    20 C5      -0.7626   1.0889   1.1972   C.ar      1 1      0.0000
    21 C8      -1.7630  -1.1044  -0.1655   C.ar      1 1      0.0000
    22 H9       0.1293  -2.0145   0.2293   H         1 1      0.0000
    23 C6      -2.0463   1.1344   0.6832   C.ar      1 1      0.0000
    24 H5      -0.3722   1.9486   1.7317   H         1 1      0.0000
    25 C7      -2.5232   0.0315   0.0086   C.ar      1 1      0.0000
    26 H8      -2.1597  -1.9612  -0.7001   H         1 1      0.0000
    27 H6      -2.6634   2.0180   0.8084   H         1 1      0.0000
    28 NO      -3.8840   0.0680  -0.5419   N.pl3     1 1      0.0000
    29 ON2     -4.5464   1.0821  -0.3797   O.2       1 1      0.0000
    30 ON1     -4.2934  -0.9174  -1.1376   O.2       1 1      0.0000
    31 C15      4.8292  -1.2027  -0.6498   C.3       1 1      0.0000
    32 H15A     5.0887  -0.6567   0.2548   H         1 1      0.0000
    33 H15C     5.4099  -2.1226  -0.6688   H         1 1      0.0000
    34 H15B     5.1226  -0.5989  -1.5060   H         1 1      0.0000
@<TRIPOS>BOND
     1     1     2    1
     2     1    15    1
     3     1    16    1
     4     1    18    1
     5     2     3    1
     6     2     4    1
     7     2    14    1
     8     4     5    1
     9     4     8    2
    10     5     6    1
    11     5     7    1
    12     5    31    1
    13     8     9    1
    14     8    10    1
    15    10    11    1
    16    10    12    1
    17    10    13    1
    18    15    17    1
    19    18    19   ar
    20    18    20   ar
    21    19    21   ar
    22    19    22    1
    23    20    23   ar
    24    20    24    1
    25    21    25   ar
    26    21    26    1
    27    23    25   ar
    28    23    27    1
    29    25    28    1
    30    28    29    2
    31    28    30    2
    32    31    32    1
    33    31    33    1
    34    31    34    1
@<TRIPOS>SUBSTRUCTURE
     1 1           1 GROUP             0 ****  ****    0  
@<TRIPOS>MOLECULE
Molecule Name_00001_00017
    34    34     1     0     0
SMALL
NO_CHARGES
****
Generated from the CSD

@<TRIPOS>ATOM
     1 C11      1.2851   1.4614   0.8888   C.3       1 1      0.0000
     2 C12      2.2798   1.1184  -0.2159   C.3       1 1      0.0000
     3 H12A     3.2267   1.6357  -0.0192   H         1 1      0.0000
     4 C13      2.5380  -0.3534  -0.3315   C.2       1 1      0.0000
     5 C14      1.6386  -1.1479  -1.2290   C.3       1 1      0.0000
     6 H14B     0.5965  -0.8647  -1.0361   H         1 1      0.0000
     7 H14A     1.7441  -2.2137  -0.9919   H         1 1      0.0000
     8 N        3.5020  -0.9377   0.3509   N.pl3     1 1      0.0000
     9 HN       3.6026  -1.9449   0.2264   H         1 1      0.0000
    10 C        4.5173  -0.2752   1.1566   C.3       1 1      0.0000
    11 HC       5.4113  -0.8908   1.2312   H         1 1      0.0000
    12 HB       4.8001   0.6789   0.7172   H         1 1      0.0000
    13 HA       4.1496  -0.0892   2.1636   H         1 1      0.0000
    14 H12B     1.8917   1.4880  -1.1731   H         1 1      0.0000
    15 O1       1.1644   2.8795   0.9631   O.3       1 1      0.0000
    16 H11      1.6733   1.0855   1.8480   H         1 1      0.0000
    17 OH1      0.5358   3.1183   1.6883   H         1 1      0.0000
    18 C10     -0.0595   0.8179   0.6191   C.ar      1 1      0.0000
    19 C9      -0.3993  -0.3897   1.2130   C.ar      1 1      0.0000
    20 C5      -0.9802   1.4261  -0.2228   C.ar      1 1      0.0000
    21 C8      -1.6256  -0.9850   0.9766   C.ar      1 1      0.0000
    22 H9       0.3099  -0.8758   1.8748   H         1 1      0.0000
    23 C6      -2.2125   0.8493  -0.4738   C.ar      1 1      0.0000
    24 H5      -0.7290   2.3713  -0.6927   H         1 1      0.0000
    25 C7      -2.5120  -0.3506   0.1337   C.ar      1 1      0.0000
    26 H8      -1.8835  -1.9295   1.4442   H         1 1      0.0000
    27 H6      -2.9266   1.3308  -1.1337   H         1 1      0.0000
    28 NO      -3.8167  -0.9729  -0.1253   N.pl3     1 1      0.0000
    29 ON2     -4.5925  -0.3987  -0.8750   O.2       1 1      0.0000
    30 ON1     -4.0683  -2.0370   0.4204   O.2       1 1      0.0000
    31 C15      1.9516  -0.9299  -2.7016   C.3       1 1      0.0000
    32 H15A     2.9747  -1.2240  -2.9261   H         1 1      0.0000
    33 H15C     1.2846  -1.5178  -3.3287   H         1 1      0.0000
    34 H15B     1.8334   0.1178  -2.9701   H         1 1      0.0000
@<TRIPOS>BOND
     1     1     2    1
     2     1    15    1
     3     1    16    1
     4     1    18    1
     5     2     3    1
     6     2     4    1
     7     2    14    1
     8     4     5    1
     9     4     8    2
    10     5     6    1
    11     5     7    1
    12     5    31    1
    13     8     9    1
    14     8    10    1
    15    10    11    1
    16    10    12    1
    17    10    13    1
    18    15    17    1
    19    18    19   ar
    20    18    20   ar
    21    19    21   ar
    22    19    22    1
    23    20    23   ar
    24    20    24    1
    25    21    25   ar
    26    21    26    1
    27    23    25   ar
    28    23    27    1
    29    25    28    1
    30    28    29    2
    31    28    30    2
    32    31    32    1
    33    31    33    1
    34    31    34    1
@<TRIPOS>SUBSTRUCTURE
     1 1           1 GROUP             0 ****  ****    0  
@<TRIPOS>MOLECULE
Molecule Name_00001_00018
    34    34     1     0     0
SMALL
NO_CHARGES
****
Generated from the CSD

@<TRIPOS>ATOM
     1 C11      1.1277  -0.0361  -0.6347   C.3       1 1      0.0000
     2 C12      1.9541  -0.0002   0.6472   C.3       1 1      0.0000
     3 H12A     1.8317  -0.9513   1.1795   H         1 1      0.0000
     4 C13      3.4120   0.2381   0.3943   C.2       1 1      0.0000
     5 C14      4.3570  -0.8942   0.6597   C.3       1 1      0.0000
     6 H14B     4.1246  -1.3351   1.6369   H         1 1      0.0000
     7 H14A     5.3815  -0.5047   0.7044   H         1 1      0.0000
     8 N        3.8555   1.4078  -0.0197   N.pl3     1 1      0.0000
     9 HN       4.8629   1.4916  -0.1545   H         1 1      0.0000
    10 C        3.0455   2.5455  -0.4301   C.3       1 1      0.0000
    11 HC       2.8709   2.5261  -1.5038   H         1 1      0.0000
    12 HB       2.0792   2.5344   0.0693   H         1 1      0.0000
    13 HA       3.5432   3.4815  -0.1851   H         1 1      0.0000
    14 H12B     1.5706   0.7962   1.2968   H         1 1      0.0000
    15 O1       1.4894  -1.2006  -1.3724   O.3       1 1      0.0000
    16 H11      1.3634   0.8551  -1.2366   H         1 1      0.0000
    17 OH1      0.9744  -1.2283  -2.2163   H         1 1      0.0000
    18 C10     -0.3538  -0.0353  -0.3185   C.ar      1 1      0.0000
    19 C9      -1.0723   1.1520  -0.2922   C.ar      1 1      0.0000
    20 C5      -1.0229  -1.2223  -0.0543   C.ar      1 1      0.0000
    21 C8      -2.4262   1.1645  -0.0078   C.ar      1 1      0.0000
    22 H9      -0.5627   2.0875  -0.4984   H         1 1      0.0000
    23 C6      -2.3763  -1.2339   0.2325   C.ar      1 1      0.0000
    24 H5      -0.4744  -2.1583  -0.0730   H         1 1      0.0000
    25 C7      -3.0542  -0.0344   0.2503   C.ar      1 1      0.0000
    26 H8      -2.9807   2.0970   0.0115   H         1 1      0.0000
    27 H6      -2.8920  -2.1660   0.4386   H         1 1      0.0000
    28 NO      -4.4910  -0.0339   0.5539   N.pl3     1 1      0.0000
    29 ON2     -5.0344  -1.1048   0.7807   O.2       1 1      0.0000
    30 ON1     -5.0790   1.0374   0.5661   O.2       1 1      0.0000
    31 C15      4.2792  -1.9751  -0.4078   C.3       1 1      0.0000
    32 H15A     3.8832  -1.5714  -1.3373   H         1 1      0.0000
    33 H15C     5.2649  -2.3886  -0.6105   H         1 1      0.0000
    34 H15B     3.6302  -2.7875  -0.0875   H         1 1      0.0000
@<TRIPOS>BOND
     1     1     2    1
     2     1    15    1
     3     1    16    1
     4     1    18    1
     5     2     3    1
     6     2     4    1
     7     2    14    1
     8     4     5    1
     9     4     8    2
    10     5     6    1
    11     5     7    1
    12     5    31    1
    13     8     9    1
    14     8    10    1
    15    10    11    1
    16    10    12    1
    17    10    13    1
    18    15    17    1
    19    18    19   ar
    20    18    20   ar
    21    19    21   ar
    22    19    22    1
    23    20    23   ar
    24    20    24    1
    25    21    25   ar
    26    21    26    1
    27    23    25   ar
    28    23    27    1
    29    25    28    1
    30    28    29    2
    31    28    30    2
    32    31    32    1
    33    31    33    1
    34    31    34    1
@<TRIPOS>SUBSTRUCTURE
     1 1           1 GROUP             0 ****  ****    0  
@<TRIPOS>MOLECULE
Molecule Name_00001_00019
    34    34     1     0     0
SMALL
NO_CHARGES
****
Generated from the CSD

@<TRIPOS>ATOM
     1 C11      1.1674   1.1437   0.8749   C.3       1 1      0.0000
     2 C12      1.9823   1.1660  -0.4146   C.3       1 1      0.0000
     3 H12A     2.6469   2.0384  -0.4038   H         1 1      0.0000
     4 C13      2.8013  -0.0742  -0.6081   C.2       1 1      0.0000
     5 C14      2.1247  -1.2655  -1.2151   C.3       1 1      0.0000
     6 H14B     1.7424  -0.9954  -2.2072   H         1 1      0.0000
     7 H14A     1.2669  -1.5480  -0.5924   H         1 1      0.0000
     8 N        4.0636  -0.1294  -0.2341   N.pl3     1 1      0.0000
     9 HN       4.5463  -1.0145  -0.3881   H         1 1      0.0000
    10 C        4.8727   0.9792   0.2510   C.3       1 1      0.0000
    11 HC       5.9308   0.7816   0.0921   H         1 1      0.0000
    12 HB       4.6197   1.9009  -0.2685   H         1 1      0.0000
    13 HA       4.7138   1.1355   1.3159   H         1 1      0.0000
    14 H12B     1.2999   1.2785  -1.2662   H         1 1      0.0000
    15 O1       1.1264   2.4657   1.4058   O.3       1 1      0.0000
    16 H11      1.6659   0.4829   1.6008   H         1 1      0.0000
    17 OH1      0.6162   2.4640   2.2530   H         1 1      0.0000
    18 C10     -0.2309   0.6212   0.6172   C.ar      1 1      0.0000
    19 C9      -0.5456  -0.7094   0.8560   C.ar      1 1      0.0000
    20 C5      -1.2263   1.4642   0.1427   C.ar      1 1      0.0000
    21 C8      -1.8201  -1.1969   0.6274   C.ar      1 1      0.0000
    22 H9       0.2220  -1.3795   1.2286   H         1 1      0.0000
    23 C6      -2.5077   0.9987  -0.0931   C.ar      1 1      0.0000
    24 H5      -0.9953   2.5072  -0.0468   H         1 1      0.0000
    25 C7      -2.7803  -0.3290   0.1549   C.ar      1 1      0.0000
    26 H8      -2.0579  -2.2386   0.8158   H         1 1      0.0000
    27 H6      -3.2802   1.6639  -0.4648   H         1 1      0.0000
    28 NO      -4.1366  -0.8348  -0.0920   N.pl3     1 1      0.0000
    29 ON2     -4.9778  -0.0534  -0.5109   O.2       1 1      0.0000
    30 ON1     -4.3636  -2.0144   0.1326   O.2       1 1      0.0000
    31 C15      3.0606  -2.4574  -1.3474   C.3       1 1      0.0000
    32 H15A     3.4384  -2.7611  -0.3733   H         1 1      0.0000
    33 H15C     2.5437  -3.3063  -1.7901   H         1 1      0.0000
    34 H15B     3.9114  -2.2115  -1.9793   H         1 1      0.0000
@<TRIPOS>BOND
     1     1     2    1
     2     1    15    1
     3     1    16    1
     4     1    18    1
     5     2     3    1
     6     2     4    1
     7     2    14    1
     8     4     5    1
     9     4     8    2
    10     5     6    1
    11     5     7    1
    12     5    31    1
    13     8     9    1
    14     8    10    1
    15    10    11    1
    16    10    12    1
    17    10    13    1
    18    15    17    1
    19    18    19   ar
    20    18    20   ar
    21    19    21   ar
    22    19    22    1
    23    20    23   ar
    24    20    24    1
    25    21    25   ar
    26    21    26    1
    27    23    25   ar
    28    23    27    1
    29    25    28    1
    30    28    29    2
    31    28    30    2
    32    31    32    1
    33    31    33    1
    34    31    34    1
@<TRIPOS>SUBSTRUCTURE
     1 1           1 GROUP             0 ****  ****    0  
@<TRIPOS>MOLECULE
Molecule Name_00001_00020
    34    34     1     0     0
SMALL
NO_CHARGES
****
Generated from the CSD

@<TRIPOS>ATOM
     1 C11      1.3338   0.1294   1.5057   C.3       1 1      0.0000
     2 C12      2.2450   0.8709   0.5325   C.3       1 1      0.0000
     3 H12A     3.0246   1.3944   1.0992   H         1 1      0.0000
     4 C13      2.8912  -0.0380  -0.4689   C.2       1 1      0.0000
     5 C14      4.1213  -0.7794  -0.0416   C.3       1 1      0.0000
     6 H14B     3.8764  -1.4189   0.8154   H         1 1      0.0000
     7 H14A     4.8802  -0.0583   0.2862   H         1 1      0.0000
     8 N        2.4150  -0.1630  -1.6911   N.pl3     1 1      0.0000
     9 HN       2.9211  -0.7910  -2.3154   H         1 1      0.0000
    10 C        1.1707   0.3972  -2.1977   C.3       1 1      0.0000
    11 HC       0.6029  -0.3553  -2.7409   H         1 1      0.0000
    12 HB       0.5506   0.7650  -1.3831   H         1 1      0.0000
    13 HA       1.3682   1.2259  -2.8744   H         1 1      0.0000
    14 H12B     1.6569   1.6278  -0.0010   H         1 1      0.0000
    15 O1       1.3950   0.7846   2.7698   O.3       1 1      0.0000
    16 H11      1.6990  -0.9029   1.6207   H         1 1      0.0000
    17 OH1      0.8226   0.3037   3.4173   H         1 1      0.0000
    18 C10     -0.0884   0.0902   0.9855   C.ar      1 1      0.0000
    19 C9      -0.5471  -0.9989   0.2576   C.ar      1 1      0.0000
    20 C5      -0.9623   1.1401   1.2315   C.ar      1 1      0.0000
    21 C8      -1.8449  -1.0471  -0.2196   C.ar      1 1      0.0000
    22 H9       0.1243  -1.8278   0.0591   H         1 1      0.0000
    23 C6      -2.2643   1.1137   0.7642   C.ar      1 1      0.0000
    24 H5      -0.6180   1.9973   1.8006   H         1 1      0.0000
    25 C7      -2.6816   0.0155   0.0443   C.ar      1 1      0.0000
    26 H8      -2.1957  -1.9018  -0.7885   H         1 1      0.0000
    27 H6      -2.9411   1.9388   0.9601   H         1 1      0.0000
    28 NO      -4.0611  -0.0239  -0.4573   N.pl3     1 1      0.0000
    29 ON2     -4.7916   0.9256  -0.2155   O.2       1 1      0.0000
    30 ON1     -4.4171  -1.0044  -1.0941   O.2       1 1      0.0000
    31 C15      4.6965  -1.6379  -1.1579   C.3       1 1      0.0000
    32 H15A     4.9691  -1.0249  -2.0145   H         1 1      0.0000
    33 H15C     5.5872  -2.1636  -0.8202   H         1 1      0.0000
    34 H15B     3.9708  -2.3781  -1.4882   H         1 1      0.0000
@<TRIPOS>BOND
     1     1     2    1
     2     1    15    1
     3     1    16    1
     4     1    18    1
     5     2     3    1
     6     2     4    1
     7     2    14    1
     8     4     5    1
     9     4     8    2
    10     5     6    1
    11     5     7    1
    12     5    31    1
    13     8     9    1
    14     8    10    1
    15    10    11    1
    16    10    12    1
    17    10    13    1
    18    15    17    1
    19    18    19   ar
    20    18    20   ar
    21    19    21   ar
    22    19    22    1
    23    20    23   ar
    24    20    24    1
    25    21    25   ar
    26    21    26    1
    27    23    25   ar
    28    23    27    1
    29    25    28    1
    30    28    29    2
    31    28    30    2
    32    31    32    1
    33    31    33    1
    34    31    34    1
@<TRIPOS>SUBSTRUCTURE
     1 1           1 GROUP             0 ****  ****    0  
@<TRIPOS>MOLECULE
Molecule Name_00001_00021
    34    34     1     0     0
SMALL
NO_CHARGES
****
Generated from the CSD

@<TRIPOS>ATOM
     1 C11      1.1769  -0.6311  -0.3787   C.3       1 1      0.0000
     2 C12      1.9906   0.0846   0.6951   C.3       1 1      0.0000
     3 H12A     2.0680  -0.5626   1.5773   H         1 1      0.0000
     4 C13      3.3679   0.4539   0.2335   C.2       1 1      0.0000
     5 C14      4.4373  -0.5910   0.3336   C.3       1 1      0.0000
     6 H14B     4.3695  -1.0826   1.3119   H         1 1      0.0000
     7 H14A     5.4199  -0.1073   0.2706   H         1 1      0.0000
     8 N        3.6404   1.6611  -0.2188   N.pl3     1 1      0.0000
     9 HN       4.6052   1.8354  -0.4999   H         1 1      0.0000
    10 C        2.6818   2.7244  -0.4822   C.3       1 1      0.0000
    11 HC       3.0360   3.3725  -1.2811   H         1 1      0.0000
    12 HB       1.7198   2.3144  -0.7816   H         1 1      0.0000
    13 HA       2.5290   3.3344   0.4057   H         1 1      0.0000
    14 H12B     1.4600   0.9960   0.9969   H         1 1      0.0000
    15 O1       1.4873  -2.0211  -0.3288   O.3       1 1      0.0000
    16 H11      1.4634  -0.2366  -1.3659   H         1 1      0.0000
    17 OH1      0.9804  -2.4966  -1.0324   H         1 1      0.0000
    18 C10     -0.3059  -0.4007  -0.1712   C.ar      1 1      0.0000
    19 C9      -0.9640   0.6240  -0.8371   C.ar      1 1      0.0000
    20 C5      -1.0365  -1.2132   0.6846   C.ar      1 1      0.0000
    21 C8      -2.3185   0.8417  -0.6578   C.ar      1 1      0.0000
    22 H9      -0.4059   1.2661  -1.5106   H         1 1      0.0000
    23 C6      -2.3917  -1.0141   0.8794   C.ar      1 1      0.0000
    24 H5      -0.5356  -2.0192   1.2106   H         1 1      0.0000
    25 C7      -3.0087   0.0144   0.2012   C.ar      1 1      0.0000
    26 H8      -2.8256   1.6453  -1.1816   H         1 1      0.0000
    27 H6      -2.9558  -1.6533   1.5507   H         1 1      0.0000
    28 NO      -4.4466   0.2359   0.4000   N.pl3     1 1      0.0000
    29 ON2     -5.0456  -0.5057   1.1647   O.2       1 1      0.0000
    30 ON1     -4.9801   1.1518  -0.2083   O.2       1 1      0.0000
    31 C15      4.3254  -1.6404  -0.7620   C.3       1 1      0.0000
    32 H15A     3.6939  -1.2848  -1.5735   H         1 1      0.0000
    33 H15C     5.3052  -1.8750  -1.1729   H         1 1      0.0000
    34 H15B     3.8921  -2.5594  -0.3731   H         1 1      0.0000
@<TRIPOS>BOND
     1     1     2    1
     2     1    15    1
     3     1    16    1
     4     1    18    1
     5     2     3    1
     6     2     4    1
     7     2    14    1
     8     4     5    1
     9     4     8    2
    10     5     6    1
    11     5     7    1
    12     5    31    1
    13     8     9    1
    14     8    10    1
    15    10    11    1
    16    10    12    1
    17    10    13    1
    18    15    17    1
    19    18    19   ar
    20    18    20   ar
    21    19    21   ar
    22    19    22    1
    23    20    23   ar
    24    20    24    1
    25    21    25   ar
    26    21    26    1
    27    23    25   ar
    28    23    27    1
    29    25    28    1
    30    28    29    2
    31    28    30    2
    32    31    32    1
    33    31    33    1
    34    31    34    1
@<TRIPOS>SUBSTRUCTURE
     1 1           1 GROUP             0 ****  ****    0  
@<TRIPOS>MOLECULE
Molecule Name_00001_00022
    34    34     1     0     0
SMALL
NO_CHARGES
****
Generated from the CSD

@<TRIPOS>ATOM
     1 C11      1.1675  -0.1652   0.7525   C.3       1 1      0.0000
     2 C12      1.8820   0.3424  -0.4962   C.3       1 1      0.0000
     3 H12A     1.6388   1.4019  -0.6427   H         1 1      0.0000
     4 C13      3.3706   0.1852  -0.4206   C.2       1 1      0.0000
     5 C14      3.9085  -1.1633  -0.0496   C.3       1 1      0.0000
     6 H14B     3.3784  -1.5303   0.8380   H         1 1      0.0000
     7 H14A     4.9697  -1.0680   0.2113   H         1 1      0.0000
     8 N        4.1810   1.1999  -0.6439   N.pl3     1 1      0.0000
     9 HN       5.1799   1.0126  -0.5589   H         1 1      0.0000
    10 C        3.8036   2.5199  -1.1277   C.3       1 1      0.0000
    11 HC       4.6160   2.9682  -1.6957   H         1 1      0.0000
    12 HB       2.9313   2.4613  -1.7751   H         1 1      0.0000
    13 HA       3.5659   3.1814  -0.2973   H         1 1      0.0000
    14 H12B     1.5097  -0.2080  -1.3690   H         1 1      0.0000
    15 O1       1.5274   0.6703   1.8495   O.3       1 1      0.0000
    16 H11      1.5019  -1.1931   0.9621   H         1 1      0.0000
    17 OH1      1.0858   0.3422   2.6713   H         1 1      0.0000
    18 C10     -0.3333  -0.1711   0.5472   C.ar      1 1      0.0000
    19 C9      -1.0015   0.9853   0.1692   C.ar      1 1      0.0000
    20 C5      -1.0689  -1.3342   0.7276   C.ar      1 1      0.0000
    21 C8      -2.3715   0.9910  -0.0243   C.ar      1 1      0.0000
    22 H9      -0.4392   1.9016   0.0229   H         1 1      0.0000
    23 C6      -2.4395  -1.3521   0.5398   C.ar      1 1      0.0000
    24 H5      -0.5597  -2.2461   1.0214   H         1 1      0.0000
    25 C7      -3.0665  -0.1835   0.1660   C.ar      1 1      0.0000
    26 H8      -2.8866   1.8992  -0.3191   H         1 1      0.0000
    27 H6      -3.0075  -2.2653   0.6835   H         1 1      0.0000
    28 NO      -4.5210  -0.1898  -0.0360   N.pl3     1 1      0.0000
    29 ON2     -5.1241  -1.2387   0.1363   O.2       1 1      0.0000
    30 ON1     -5.0633   0.8540  -0.3675   O.2       1 1      0.0000
    31 C15      3.7593  -2.1755  -1.1752   C.3       1 1      0.0000
    32 H15A     4.2948  -1.8465  -2.0633   H         1 1      0.0000
    33 H15C     4.1573  -3.1437  -0.8786   H         1 1      0.0000
    34 H15B     2.7121  -2.3064  -1.4400   H         1 1      0.0000
@<TRIPOS>BOND
     1     1     2    1
     2     1    15    1
     3     1    16    1
     4     1    18    1
     5     2     3    1
     6     2     4    1
     7     2    14    1
     8     4     5    1
     9     4     8    2
    10     5     6    1
    11     5     7    1
    12     5    31    1
    13     8     9    1
    14     8    10    1
    15    10    11    1
    16    10    12    1
    17    10    13    1
    18    15    17    1
    19    18    19   ar
    20    18    20   ar
    21    19    21   ar
    22    19    22    1
    23    20    23   ar
    24    20    24    1
    25    21    25   ar
    26    21    26    1
    27    23    25   ar
    28    23    27    1
    29    25    28    1
    30    28    29    2
    31    28    30    2
    32    31    32    1
    33    31    33    1
    34    31    34    1
@<TRIPOS>SUBSTRUCTURE
     1 1           1 GROUP             0 ****  ****    0  
@<TRIPOS>MOLECULE
Molecule Name_00001_00023
    34    34     1     0     0
SMALL
NO_CHARGES
****
Generated from the CSD

@<TRIPOS>ATOM
     1 C11      1.1420  -0.7865   0.0785   C.3       1 1      0.0000
     2 C12      1.9209   0.5191  -0.0477   C.3       1 1      0.0000
     3 H12A     1.9100   1.0381   0.9185   H         1 1      0.0000
     4 C13      3.3413   0.3112  -0.4786   C.2       1 1      0.0000
     5 C14      4.1766  -0.6429   0.3198   C.3       1 1      0.0000
     6 H14B     5.1192  -0.8264  -0.2105   H         1 1      0.0000
     7 H14A     3.6484  -1.6008   0.4028   H         1 1      0.0000
     8 N        3.8504   0.9624  -1.5047   N.pl3     1 1      0.0000
     9 HN       4.8285   0.7743  -1.7241   H         1 1      0.0000
    10 C        3.1262   1.8174  -2.4339   C.3       1 1      0.0000
    11 HC       3.6421   1.8698  -3.3904   H         1 1      0.0000
    12 HB       2.1233   1.4355  -2.6118   H         1 1      0.0000
    13 HA       3.0395   2.8281  -2.0404   H         1 1      0.0000
    14 H12B     1.4183   1.1655  -0.7778   H         1 1      0.0000
    15 O1       1.5695  -1.4544   1.2627   O.3       1 1      0.0000
    16 H11      1.3679  -1.4225  -0.7913   H         1 1      0.0000
    17 OH1      1.0858  -2.3128   1.3487   H         1 1      0.0000
    18 C10     -0.3489  -0.5206   0.1163   C.ar      1 1      0.0000
    19 C9      -1.2012  -1.1324  -0.7925   C.ar      1 1      0.0000
    20 C5      -0.8924   0.3356   1.0639   C.ar      1 1      0.0000
    21 C8      -2.5647  -0.8995  -0.7654   C.ar      1 1      0.0000
    22 H9      -0.7906  -1.8055  -1.5378   H         1 1      0.0000
    23 C6      -2.2528   0.5834   1.1098   C.ar      1 1      0.0000
    24 H5      -0.2384   0.8196   1.7817   H         1 1      0.0000
    25 C7      -3.0658  -0.0420   0.1897   C.ar      1 1      0.0000
    26 H8      -3.2243  -1.3811  -1.4797   H         1 1      0.0000
    27 H6      -2.6699   1.2546   1.8533   H         1 1      0.0000
    28 NO      -4.5113   0.2134   0.2282   N.pl3     1 1      0.0000
    29 ON2     -4.9412   0.9762   1.0808   O.2       1 1      0.0000
    30 ON1     -5.2198  -0.3483  -0.5940   O.2       1 1      0.0000
    31 C15      4.4816  -0.1176   1.7144   C.3       1 1      0.0000
    32 H15A     3.5629   0.0529   2.2718   H         1 1      0.0000
    33 H15C     5.0882  -0.8294   2.2705   H         1 1      0.0000
    34 H15B     5.0257   0.8231   1.6618   H         1 1      0.0000
@<TRIPOS>BOND
     1     1     2    1
     2     1    15    1
     3     1    16    1
     4     1    18    1
     5     2     3    1
     6     2     4    1
     7     2    14    1
     8     4     5    1
     9     4     8    2
    10     5     6    1
    11     5     7    1
    12     5    31    1
    13     8     9    1
    14     8    10    1
    15    10    11    1
    16    10    12    1
    17    10    13    1
    18    15    17    1
    19    18    19   ar
    20    18    20   ar
    21    19    21   ar
    22    19    22    1
    23    20    23   ar
    24    20    24    1
    25    21    25   ar
    26    21    26    1
    27    23    25   ar
    28    23    27    1
    29    25    28    1
    30    28    29    2
    31    28    30    2
    32    31    32    1
    33    31    33    1
    34    31    34    1
@<TRIPOS>SUBSTRUCTURE
     1 1           1 GROUP             0 ****  ****    0  
@<TRIPOS>MOLECULE
Molecule Name_00001_00024
    34    34     1     0     0
SMALL
NO_CHARGES
****
Generated from the CSD

@<TRIPOS>ATOM
     1 C11      1.1899  -0.3737   0.4330   C.3       1 1      0.0000
     2 C12      1.8347   0.4043  -0.7100   C.3       1 1      0.0000
     3 H12A     1.6083   1.4708  -0.5903   H         1 1      0.0000
     4 C13      3.3208   0.2210  -0.7745   C.2       1 1      0.0000
     5 C14      3.8493  -1.1810  -0.7487   C.3       1 1      0.0000
     6 H14B     4.8640  -1.1906  -1.1655   H         1 1      0.0000
     7 H14A     3.2205  -1.8143  -1.3866   H         1 1      0.0000
     8 N        4.1390   1.2527  -0.8240   N.pl3     1 1      0.0000
     9 HN       5.1365   1.0423  -0.8520   H         1 1      0.0000
    10 C        3.7624   2.6504  -0.9770   C.3       1 1      0.0000
    11 HC       4.5463   3.2064  -1.4870   H         1 1      0.0000
    12 HB       2.8483   2.7447  -1.5591   H         1 1      0.0000
    13 HA       3.5958   3.1133  -0.0065   H         1 1      0.0000
    14 H12B     1.3938   0.0753  -1.6591   H         1 1      0.0000
    15 O1       1.6570   0.1663   1.6664   O.3       1 1      0.0000
    16 H11      1.4985  -1.4284   0.3656   H         1 1      0.0000
    17 OH1      1.2613  -0.3406   2.4179   H         1 1      0.0000
    18 C10     -0.3207  -0.2993   0.3479   C.ar      1 1      0.0000
    19 C9      -0.9688   0.9274   0.3085   C.ar      1 1      0.0000
    20 C5      -1.0859  -1.4564   0.3021   C.ar      1 1      0.0000
    21 C8      -2.3477   1.0074   0.2275   C.ar      1 1      0.0000
    22 H9      -0.3834   1.8403   0.3418   H         1 1      0.0000
    23 C6      -2.4659  -1.4006   0.2211   C.ar      1 1      0.0000
    24 H5      -0.5927  -2.4225   0.3304   H         1 1      0.0000
    25 C7      -3.0723  -0.1638   0.1855   C.ar      1 1      0.0000
    26 H8      -2.8470   1.9703   0.1978   H         1 1      0.0000
    27 H6      -3.0571  -2.3098   0.1864   H         1 1      0.0000
    28 NO      -4.5364  -0.0917   0.0999   N.pl3     1 1      0.0000
    29 ON2     -5.1658  -1.1387   0.0634   O.2       1 1      0.0000
    30 ON1     -5.0602   1.0120   0.0691   O.2       1 1      0.0000
    31 C15      3.8807  -1.7618   0.6569   C.3       1 1      0.0000
    32 H15A     3.0932  -2.5013   0.7863   H         1 1      0.0000
    33 H15C     4.8353  -2.2454   0.8531   H         1 1      0.0000
    34 H15B     3.7374  -0.9805   1.4003   H         1 1      0.0000
@<TRIPOS>BOND
     1     1     2    1
     2     1    15    1
     3     1    16    1
     4     1    18    1
     5     2     3    1
     6     2     4    1
     7     2    14    1
     8     4     5    1
     9     4     8    2
    10     5     6    1
    11     5     7    1
    12     5    31    1
    13     8     9    1
    14     8    10    1
    15    10    11    1
    16    10    12    1
    17    10    13    1
    18    15    17    1
    19    18    19   ar
    20    18    20   ar
    21    19    21   ar
    22    19    22    1
    23    20    23   ar
    24    20    24    1
    25    21    25   ar
    26    21    26    1
    27    23    25   ar
    28    23    27    1
    29    25    28    1
    30    28    29    2
    31    28    30    2
    32    31    32    1
    33    31    33    1
    34    31    34    1
@<TRIPOS>SUBSTRUCTURE
     1 1           1 GROUP             0 ****  ****    0  
@<TRIPOS>MOLECULE
Molecule Name_00001_00025
    34    34     1     0     0
SMALL
NO_CHARGES
****
Generated from the CSD

@<TRIPOS>ATOM
     1 C11      1.1306   0.4733   0.6525   C.3       1 1      0.0000
     2 C12      1.8954  -0.1456  -0.5133   C.3       1 1      0.0000
     3 H12A     1.6540   0.4026  -1.4321   H         1 1      0.0000
     4 C13      3.3801  -0.1332  -0.3087   C.2       1 1      0.0000
     5 C14      3.9721  -1.2112   0.5476   C.3       1 1      0.0000
     6 H14B     3.3808  -1.3059   1.4667   H         1 1      0.0000
     7 H14A     4.9911  -0.9237   0.8345   H         1 1      0.0000
     8 N        4.1388   0.8054  -0.8373   N.pl3     1 1      0.0000
     9 HN       5.1377   0.7497  -0.6387   H         1 1      0.0000
    10 C        3.7174   1.8313  -1.7801   C.3       1 1      0.0000
    11 HC       4.5655   2.1972  -2.3551   H         1 1      0.0000
    12 HB       2.9809   1.4384  -2.4777   H         1 1      0.0000
    13 HA       3.2731   2.6759  -1.2577   H         1 1      0.0000
    14 H12B     1.5632  -1.1824  -0.6479   H         1 1      0.0000
    15 O1       1.4268   1.8666   0.6977   O.3       1 1      0.0000
    16 H11      1.4692   0.0059   1.5900   H         1 1      0.0000
    17 OH1      0.9519   2.2791   1.4609   H         1 1      0.0000
    18 C10     -0.3588   0.2422   0.5005   C.ar      1 1      0.0000
    19 C9      -1.2443   0.6537   1.4870   C.ar      1 1      0.0000
    20 C5      -0.8676  -0.3807  -0.6307   C.ar      1 1      0.0000
    21 C8      -2.6067   0.4507   1.3575   C.ar      1 1      0.0000
    22 H9      -0.8609   1.1435   2.3760   H         1 1      0.0000
    23 C6      -2.2262  -0.5941  -0.7817   C.ar      1 1      0.0000
    24 H5      -0.1874  -0.7062  -1.4108   H         1 1      0.0000
    25 C7      -3.0728  -0.1723   0.2203   C.ar      1 1      0.0000
    26 H8      -3.2924   0.7748   2.1334   H         1 1      0.0000
    27 H6      -2.6161  -1.0824  -1.6688   H         1 1      0.0000
    28 NO      -4.5168  -0.3937   0.0716   N.pl3     1 1      0.0000
    29 ON2     -4.9155  -0.9474  -0.9423   O.2       1 1      0.0000
    30 ON1     -5.2553  -0.0142   0.9683   O.2       1 1      0.0000
    31 C15      4.0130  -2.5564  -0.1615   C.3       1 1      0.0000
    32 H15A     4.6125  -2.4967  -1.0675   H         1 1      0.0000
    33 H15C     4.4467  -3.3187   0.4824   H         1 1      0.0000
    34 H15B     3.0109  -2.8769  -0.4387   H         1 1      0.0000
@<TRIPOS>BOND
     1     1     2    1
     2     1    15    1
     3     1    16    1
     4     1    18    1
     5     2     3    1
     6     2     4    1
     7     2    14    1
     8     4     5    1
     9     4     8    2
    10     5     6    1
    11     5     7    1
    12     5    31    1
    13     8     9    1
    14     8    10    1
    15    10    11    1
    16    10    12    1
    17    10    13    1
    18    15    17    1
    19    18    19   ar
    20    18    20   ar
    21    19    21   ar
    22    19    22    1
    23    20    23   ar
    24    20    24    1
    25    21    25   ar
    26    21    26    1
    27    23    25   ar
    28    23    27    1
    29    25    28    1
    30    28    29    2
    31    28    30    2
    32    31    32    1
    33    31    33    1
    34    31    34    1
@<TRIPOS>SUBSTRUCTURE
     1 1           1 GROUP             0 ****  ****    0  
@<TRIPOS>MOLECULE
Molecule Name_00001_00026
    34    34     1     0     0
SMALL
NO_CHARGES
****
Generated from the CSD

@<TRIPOS>ATOM
     1 C11      1.2077  -0.2439   0.4794   C.3       1 1      0.0000
     2 C12      1.8453   0.4498  -0.7204   C.3       1 1      0.0000
     3 H12A     1.6021   1.5188  -0.6876   H         1 1      0.0000
     4 C13      3.3343   0.2851  -0.7655   C.2       1 1      0.0000
     5 C14      3.8754  -0.9791  -1.3608   C.3       1 1      0.0000
     6 H14B     4.9465  -0.8526  -1.5614   H         1 1      0.0000
     7 H14A     3.3764  -1.1677  -2.3194   H         1 1      0.0000
     8 N        4.1424   1.2033  -0.2754   N.pl3     1 1      0.0000
     9 HN       5.1419   1.0083  -0.3327   H         1 1      0.0000
    10 C        3.7616   2.5196   0.2157   C.3       1 1      0.0000
    11 HC       4.6036   3.2070   0.1664   H         1 1      0.0000
    12 HB       2.9508   2.9359  -0.3782   H         1 1      0.0000
    13 HA       3.4303   2.4640   1.2505   H         1 1      0.0000
    14 H12B     1.4136   0.0388  -1.6413   H         1 1      0.0000
    15 O1       1.6399   0.4176   1.6654   O.3       1 1      0.0000
    16 H11      1.5490  -1.2902   0.5098   H         1 1      0.0000
    17 OH1      1.2487  -0.0329   2.4542   H         1 1      0.0000
    18 C10     -0.3031  -0.2250   0.3699   C.ar      1 1      0.0000
    19 C9      -1.0905  -0.8636   1.3179   C.ar      1 1      0.0000
    20 C5      -0.9296   0.4360  -0.6774   C.ar      1 1      0.0000
    21 C8      -2.4712  -0.8501   1.2299   C.ar      1 1      0.0000
    22 H9      -0.6145  -1.3828   2.1432   H         1 1      0.0000
    23 C6      -2.3087   0.4626  -0.7858   C.ar      1 1      0.0000
    24 H5      -0.3269   0.9411  -1.4250   H         1 1      0.0000
    25 C7      -3.0556  -0.1843   0.1746   C.ar      1 1      0.0000
    26 H8      -3.0797  -1.3523   1.9747   H         1 1      0.0000
    27 H6      -2.7909   0.9810  -1.6079   H         1 1      0.0000
    28 NO      -4.5202  -0.1634   0.0702   N.pl3     1 1      0.0000
    29 ON2     -5.0243   0.4311  -0.8711   O.2       1 1      0.0000
    30 ON1     -5.1694  -0.7413   0.9292   O.2       1 1      0.0000
    31 C15      3.6760  -2.1799  -0.4485   C.3       1 1      0.0000
    32 H15A     2.6607  -2.5622  -0.5305   H         1 1      0.0000
    33 H15C     4.3624  -2.9822  -0.7114   H         1 1      0.0000
    34 H15B     3.8533  -1.9089   0.5901   H         1 1      0.0000
@<TRIPOS>BOND
     1     1     2    1
     2     1    15    1
     3     1    16    1
     4     1    18    1
     5     2     3    1
     6     2     4    1
     7     2    14    1
     8     4     5    1
     9     4     8    2
    10     5     6    1
    11     5     7    1
    12     5    31    1
    13     8     9    1
    14     8    10    1
    15    10    11    1
    16    10    12    1
    17    10    13    1
    18    15    17    1
    19    18    19   ar
    20    18    20   ar
    21    19    21   ar
    22    19    22    1
    23    20    23   ar
    24    20    24    1
    25    21    25   ar
    26    21    26    1
    27    23    25   ar
    28    23    27    1
    29    25    28    1
    30    28    29    2
    31    28    30    2
    32    31    32    1
    33    31    33    1
    34    31    34    1
@<TRIPOS>SUBSTRUCTURE
     1 1           1 GROUP             0 ****  ****    0  
@<TRIPOS>MOLECULE
Molecule Name_00001_00027
    34    34     1     0     0
SMALL
NO_CHARGES
****
Generated from the CSD

@<TRIPOS>ATOM
     1 C11      1.0874  -0.6279  -0.5584   C.3       1 1      0.0000
     2 C12      1.9374   0.3583   0.2367   C.3       1 1      0.0000
     3 H12A     1.8582   0.1204   1.3045   H         1 1      0.0000
     4 C13      3.3811   0.3401  -0.1656   C.2       1 1      0.0000
     5 C14      4.2632  -0.6975   0.4595   C.3       1 1      0.0000
     6 H14B     5.2133  -0.7387  -0.0873   H         1 1      0.0000
     7 H14A     3.7831  -1.6797   0.3689   H         1 1      0.0000
     8 N        3.8684   1.2201  -1.0167   N.pl3     1 1      0.0000
     9 HN       4.8637   1.1478  -1.2272   H         1 1      0.0000
    10 C        3.1083   2.1951  -1.7851   C.3       1 1      0.0000
    11 HC       3.6082   2.4183  -2.7253   H         1 1      0.0000
    12 HB       2.1131   1.8194  -2.0128   H         1 1      0.0000
    13 HA       3.0010   3.1246  -1.2299   H         1 1      0.0000
    14 H12B     1.5400   1.3703   0.0911   H         1 1      0.0000
    15 O1       1.4854  -1.9510  -0.2089   O.3       1 1      0.0000
    16 H11      1.2709  -0.4722  -1.6328   H         1 1      0.0000
    17 OH1      0.9550  -2.6025  -0.7307   H         1 1      0.0000
    18 C10     -0.3859  -0.4148  -0.2777   C.ar      1 1      0.0000
    19 C9      -1.3498  -1.1497  -0.9538   C.ar      1 1      0.0000
    20 C5      -0.8004   0.5155   0.6653   C.ar      1 1      0.0000
    21 C8      -2.6980  -0.9658  -0.7033   C.ar      1 1      0.0000
    22 H9      -1.0404  -1.8818  -1.6924   H         1 1      0.0000
    23 C6      -2.1430   0.7163   0.9323   C.ar      1 1      0.0000
    24 H5      -0.0579   1.0960   1.2028   H         1 1      0.0000
    25 C7      -3.0695  -0.0318   0.2392   C.ar      1 1      0.0000
    26 H8      -3.4455  -1.5438  -1.2366   H         1 1      0.0000
    27 H6      -2.4590   1.4461   1.6704   H         1 1      0.0000
    28 NO      -4.4976   0.1726   0.5136   N.pl3     1 1      0.0000
    29 ON2     -4.8120   1.0043   1.3519   O.2       1 1      0.0000
    30 ON1     -5.3077  -0.4981  -0.1088   O.2       1 1      0.0000
    31 C15      4.5429  -0.4112   1.9271   C.3       1 1      0.0000
    32 H15A     3.6173  -0.3863   2.4984   H         1 1      0.0000
    33 H15C     5.1844  -1.1790   2.3544   H         1 1      0.0000
    34 H15B     5.0397   0.5496   2.0447   H         1 1      0.0000
@<TRIPOS>BOND
     1     1     2    1
     2     1    15    1
     3     1    16    1
     4     1    18    1
     5     2     3    1
     6     2     4    1
     7     2    14    1
     8     4     5    1
     9     4     8    2
    10     5     6    1
    11     5     7    1
    12     5    31    1
    13     8     9    1
    14     8    10    1
    15    10    11    1
    16    10    12    1
    17    10    13    1
    18    15    17    1
    19    18    19   ar
    20    18    20   ar
    21    19    21   ar
    22    19    22    1
    23    20    23   ar
    24    20    24    1
    25    21    25   ar
    26    21    26    1
    27    23    25   ar
    28    23    27    1
    29    25    28    1
    30    28    29    2
    31    28    30    2
    32    31    32    1
    33    31    33    1
    34    31    34    1
@<TRIPOS>SUBSTRUCTURE
     1 1           1 GROUP             0 ****  ****    0  
@<TRIPOS>MOLECULE
Molecule Name_00001_00028
    34    34     1     0     0
SMALL
NO_CHARGES
****
Generated from the CSD

@<TRIPOS>ATOM
     1 C11      1.0586   0.3716  -0.7794   C.3       1 1      0.0000
     2 C12      1.9534  -0.3475   0.2254   C.3       1 1      0.0000
     3 H12A     1.8003  -1.4295   0.1318   H         1 1      0.0000
     4 C13      3.4077  -0.0381   0.0367   C.2       1 1      0.0000
     5 C14      4.2926  -1.1389  -0.4639   C.3       1 1      0.0000
     6 H14B     5.2572  -0.7146  -0.7687   H         1 1      0.0000
     7 H14A     3.8336  -1.5947  -1.3499   H         1 1      0.0000
     8 N        3.9008   1.1492   0.3255   N.pl3     1 1      0.0000
     9 HN       4.9028   1.2738   0.1819   H         1 1      0.0000
    10 C        3.1430   2.3344   0.6996   C.3       1 1      0.0000
    11 HC       2.9168   2.9387  -0.1765   H         1 1      0.0000
    12 HB       2.2025   2.0605   1.1727   H         1 1      0.0000
    13 HA       3.7078   2.9487   1.3977   H         1 1      0.0000
    14 H12B     1.6562  -0.0562   1.2404   H         1 1      0.0000
    15 O1       1.3062  -0.1712  -2.0737   O.3       1 1      0.0000
    16 H11      1.3171   1.4418  -0.7858   H         1 1      0.0000
    17 OH1      0.7458   0.2983  -2.7397   H         1 1      0.0000
    18 C10     -0.4008   0.2229  -0.4012   C.ar      1 1      0.0000
    19 C9      -0.9620  -1.0337  -0.2218   C.ar      1 1      0.0000
    20 C5      -1.2037   1.3407  -0.2211   C.ar      1 1      0.0000
    21 C8      -2.2928  -1.1815   0.1268   C.ar      1 1      0.0000
    22 H9      -0.3459  -1.9165  -0.3576   H         1 1      0.0000
    23 C6      -2.5369   1.2171   0.1276   C.ar      1 1      0.0000
    24 H5      -0.7781   2.3295  -0.3562   H         1 1      0.0000
    25 C7      -3.0574  -0.0477   0.2952   C.ar      1 1      0.0000
    26 H8      -2.7243  -2.1674   0.2645   H         1 1      0.0000
    27 H6      -3.1582   2.0958   0.2659   H         1 1      0.0000
    28 NO      -4.4713  -0.1917   0.6649   N.pl3     1 1      0.0000
    29 ON2     -5.1370   0.8227   0.8107   O.2       1 1      0.0000
    30 ON1     -4.9189  -1.3195   0.8101   O.2       1 1      0.0000
    31 C15      4.5287  -2.2142   0.5859   C.3       1 1      0.0000
    32 H15A     3.5883  -2.6683   0.8912   H         1 1      0.0000
    33 H15C     5.1732  -2.9991   0.1958   H         1 1      0.0000
    34 H15B     5.0042  -1.7930   1.4692   H         1 1      0.0000
@<TRIPOS>BOND
     1     1     2    1
     2     1    15    1
     3     1    16    1
     4     1    18    1
     5     2     3    1
     6     2     4    1
     7     2    14    1
     8     4     5    1
     9     4     8    2
    10     5     6    1
    11     5     7    1
    12     5    31    1
    13     8     9    1
    14     8    10    1
    15    10    11    1
    16    10    12    1
    17    10    13    1
    18    15    17    1
    19    18    19   ar
    20    18    20   ar
    21    19    21   ar
    22    19    22    1
    23    20    23   ar
    24    20    24    1
    25    21    25   ar
    26    21    26    1
    27    23    25   ar
    28    23    27    1
    29    25    28    1
    30    28    29    2
    31    28    30    2
    32    31    32    1
    33    31    33    1
    34    31    34    1
@<TRIPOS>SUBSTRUCTURE
     1 1           1 GROUP             0 ****  ****    0  
@<TRIPOS>MOLECULE
Molecule Name_00001_00029
    34    34     1     0     0
SMALL
NO_CHARGES
****
Generated from the CSD

@<TRIPOS>ATOM
     1 C11      1.1598   0.0778   0.7711   C.3       1 1      0.0000
     2 C12      1.8861   0.1930  -0.5655   C.3       1 1      0.0000
     3 H12A     1.6340   1.1546  -1.0290   H         1 1      0.0000
     4 C13      3.3751   0.0871  -0.4309   C.2       1 1      0.0000
     5 C14      3.9218  -1.0777   0.3370   C.3       1 1      0.0000
     6 H14B     3.3833  -1.1658   1.2887   H         1 1      0.0000
     7 H14A     4.9783  -0.8928   0.5673   H         1 1      0.0000
     8 N        4.1779   0.9977  -0.9434   N.pl3     1 1      0.0000
     9 HN       5.1775   0.8591  -0.7956   H         1 1      0.0000
    10 C        3.7935   2.1034  -1.8086   C.3       1 1      0.0000
    11 HC       4.6090   2.3698  -2.4777   H         1 1      0.0000
    12 HB       2.9309   1.8390  -2.4163   H         1 1      0.0000
    13 HA       3.5375   2.9821  -1.2204   H         1 1      0.0000
    14 H12B     1.5317  -0.6013  -1.2340   H         1 1      0.0000
    15 O1       1.4958   1.2116   1.5665   O.3       1 1      0.0000
    16 H11      1.5019  -0.8333   1.2859   H         1 1      0.0000
    17 OH1      1.0463   1.1419   2.4447   H         1 1      0.0000
    18 C10     -0.3379  -0.0111   0.5623   C.ar      1 1      0.0000
    19 C9      -0.8988  -1.0982  -0.0936   C.ar      1 1      0.0000
    20 C5      -1.1791   0.9900   1.0275   C.ar      1 1      0.0000
    21 C8      -2.2655  -1.1917  -0.2871   C.ar      1 1      0.0000
    22 H9      -0.2535  -1.8893  -0.4612   H         1 1      0.0000
    23 C6      -2.5488   0.9178   0.8454   C.ar      1 1      0.0000
    24 H5      -0.7549   1.8450   1.5436   H         1 1      0.0000
    25 C7      -3.0671  -0.1768   0.1883   C.ar      1 1      0.0000
    26 H8      -2.6962  -2.0445  -0.8014   H         1 1      0.0000
    27 H6      -3.1996   1.7049   1.2115   H         1 1      0.0000
    28 NO      -4.5193  -0.2646  -0.0115   N.pl3     1 1      0.0000
    29 ON2     -5.2176   0.6429   0.4156   O.2       1 1      0.0000
    30 ON1     -4.9646  -1.2411  -0.5958   O.2       1 1      0.0000
    31 C15      3.7987  -2.3856  -0.4300   C.3       1 1      0.0000
    32 H15A     4.3430  -2.3338  -1.3706   H         1 1      0.0000
    33 H15C     4.2027  -3.2125   0.1503   H         1 1      0.0000
    34 H15B     2.7567  -2.6053  -0.6531   H         1 1      0.0000
@<TRIPOS>BOND
     1     1     2    1
     2     1    15    1
     3     1    16    1
     4     1    18    1
     5     2     3    1
     6     2     4    1
     7     2    14    1
     8     4     5    1
     9     4     8    2
    10     5     6    1
    11     5     7    1
    12     5    31    1
    13     8     9    1
    14     8    10    1
    15    10    11    1
    16    10    12    1
    17    10    13    1
    18    15    17    1
    19    18    19   ar
    20    18    20   ar
    21    19    21   ar
    22    19    22    1
    23    20    23   ar
    24    20    24    1
    25    21    25   ar
    26    21    26    1
    27    23    25   ar
    28    23    27    1
    29    25    28    1
    30    28    29    2
    31    28    30    2
    32    31    32    1
    33    31    33    1
    34    31    34    1
@<TRIPOS>SUBSTRUCTURE
     1 1           1 GROUP             0 ****  ****    0  
@<TRIPOS>MOLECULE
Molecule Name_00001_00030
    34    34     1     0     0
SMALL
NO_CHARGES
****
Generated from the CSD

@<TRIPOS>ATOM
     1 C11      1.1887  -0.2192   0.5284   C.3       1 1      0.0000
     2 C12      1.8406   0.1963  -0.7868   C.3       1 1      0.0000
     3 H12A     1.6007   1.2471  -0.9898   H         1 1      0.0000
     4 C13      3.3294   0.0241  -0.7794   C.2       1 1      0.0000
     5 C14      3.8731  -1.2999  -0.3354   C.3       1 1      0.0000
     6 H14B     4.8935  -1.4171  -0.7206   H         1 1      0.0000
     7 H14A     3.2603  -2.1024  -0.7641   H         1 1      0.0000
     8 N        4.1366   1.0071  -1.1231   N.pl3     1 1      0.0000
     9 HN       5.1368   0.8127  -1.0777   H         1 1      0.0000
    10 C        3.7467   2.2917  -1.6859   C.3       1 1      0.0000
    11 HC       4.5314   2.6840  -2.3294   H         1 1      0.0000
    12 HB       2.8398   2.1965  -2.2790   H         1 1      0.0000
    13 HA       3.5614   3.0179  -0.8971   H         1 1      0.0000
    14 H12B     1.4167  -0.4047  -1.6008   H         1 1      0.0000
    15 O1       1.6324   0.6677   1.5520   O.3       1 1      0.0000
    16 H11      1.5099  -1.2421   0.7786   H         1 1      0.0000
    17 OH1      1.2319   0.3994   2.4156   H         1 1      0.0000
    18 C10     -0.3214  -0.1955   0.4100   C.ar      1 1      0.0000
    19 C9      -0.9785  -1.0632  -0.4513   C.ar      1 1      0.0000
    20 C5      -1.0777   0.6904   1.1647   C.ar      1 1      0.0000
    21 C8      -2.3573  -1.0527  -0.5653   C.ar      1 1      0.0000
    22 H9      -0.4002  -1.7624  -1.0463   H         1 1      0.0000
    23 C6      -2.4576   0.7186   1.0672   C.ar      1 1      0.0000
    24 H5      -0.5777   1.3733   1.8435   H         1 1      0.0000
    25 C7      -3.0728  -0.1576   0.1998   C.ar      1 1      0.0000
    26 H8      -2.8635  -1.7338  -1.2414   H         1 1      0.0000
    27 H6      -3.0417   1.4147   1.6601   H         1 1      0.0000
    28 NO      -4.5368  -0.1368   0.0873   N.pl3     1 1      0.0000
    29 ON2     -5.1580   0.6625   0.7720   O.2       1 1      0.0000
    30 ON1     -5.0685  -0.9196  -0.6860   O.2       1 1      0.0000
    31 C15      3.8913  -1.4394   1.1793   C.3       1 1      0.0000
    32 H15A     3.1104  -2.1193   1.5133   H         1 1      0.0000
    33 H15C     4.8485  -1.8294   1.5192   H         1 1      0.0000
    34 H15B     3.7289  -0.4756   1.6573   H         1 1      0.0000
@<TRIPOS>BOND
     1     1     2    1
     2     1    15    1
     3     1    16    1
     4     1    18    1
     5     2     3    1
     6     2     4    1
     7     2    14    1
     8     4     5    1
     9     4     8    2
    10     5     6    1
    11     5     7    1
    12     5    31    1
    13     8     9    1
    14     8    10    1
    15    10    11    1
    16    10    12    1
    17    10    13    1
    18    15    17    1
    19    18    19   ar
    20    18    20   ar
    21    19    21   ar
    22    19    22    1
    23    20    23   ar
    24    20    24    1
    25    21    25   ar
    26    21    26    1
    27    23    25   ar
    28    23    27    1
    29    25    28    1
    30    28    29    2
    31    28    30    2
    32    31    32    1
    33    31    33    1
    34    31    34    1
@<TRIPOS>SUBSTRUCTURE
     1 1           1 GROUP             0 ****  ****    0  
@<TRIPOS>MOLECULE
Molecule Name_00001_00031
    34    34     1     0     0
SMALL
NO_CHARGES
****
Generated from the CSD

@<TRIPOS>ATOM
     1 C11      1.0567  -0.0100  -0.8646   C.3       1 1      0.0000
     2 C12      1.9631  -0.1365   0.3560   C.3       1 1      0.0000
     3 H12A     1.8519  -1.1407   0.7827   H         1 1      0.0000
     4 C13      3.4074   0.1054   0.0371   C.2       1 1      0.0000
     5 C14      4.3399  -1.0654   0.1085   C.3       1 1      0.0000
     6 H14B     5.2923  -0.7961  -0.3646   H         1 1      0.0000
     7 H14A     3.9111  -1.9018  -0.4571   H         1 1      0.0000
     8 N        3.8517   1.3078  -0.2684   N.pl3     1 1      0.0000
     9 HN       4.8503   1.3900  -0.4585   H         1 1      0.0000
    10 C        3.0448   2.4986  -0.4918   C.3       1 1      0.0000
    11 HC       2.8273   2.6228  -1.5506   H         1 1      0.0000
    12 HB       2.0991   2.4324   0.0416   H         1 1      0.0000
    13 HA       3.5672   3.3885  -0.1469   H         1 1      0.0000
    14 H12B     1.6406   0.5854   1.1163   H         1 1      0.0000
    15 O1       1.3431  -1.0870  -1.7530   O.3       1 1      0.0000
    16 H11      1.2752   0.9409  -1.3746   H         1 1      0.0000
    17 OH1      0.7753  -1.0082  -2.5589   H         1 1      0.0000
    18 C10     -0.4014  -0.0213  -0.4540   C.ar      1 1      0.0000
    19 C9      -0.9266   1.0012   0.3238   C.ar      1 1      0.0000
    20 C5      -1.2419  -1.0516  -0.8521   C.ar      1 1      0.0000
    21 C8      -2.2575   1.0030   0.7022   C.ar      1 1      0.0000
    22 H9      -0.2817   1.8140   0.6410   H         1 1      0.0000
    23 C6      -2.5760  -1.0707  -0.4858   C.ar      1 1      0.0000
    24 H5      -0.8456  -1.8568  -1.4619   H         1 1      0.0000
    25 C7      -3.0594  -0.0381   0.2880   C.ar      1 1      0.0000
    26 H8      -2.6603   1.8057   1.3109   H         1 1      0.0000
    27 H6      -3.2265  -1.8800  -0.8005   H         1 1      0.0000
    28 NO      -4.4736  -0.0475   0.6835   N.pl3     1 1      0.0000
    29 ON2     -5.1726  -0.9772   0.3088   O.2       1 1      0.0000
    30 ON1     -4.8882   0.8749   1.3697   O.2       1 1      0.0000
    31 C15      4.6007  -1.5109   1.5394   C.3       1 1      0.0000
    32 H15A     3.6736  -1.8053   2.0268   H         1 1      0.0000
    33 H15C     5.2797  -2.3608   1.5610   H         1 1      0.0000
    34 H15B     5.0473  -0.7056   2.1188   H         1 1      0.0000
@<TRIPOS>BOND
     1     1     2    1
     2     1    15    1
     3     1    16    1
     4     1    18    1
     5     2     3    1
     6     2     4    1
     7     2    14    1
     8     4     5    1
     9     4     8    2
    10     5     6    1
    11     5     7    1
    12     5    31    1
    13     8     9    1
    14     8    10    1
    15    10    11    1
    16    10    12    1
    17    10    13    1
    18    15    17    1
    19    18    19   ar
    20    18    20   ar
    21    19    21   ar
    22    19    22    1
    23    20    23   ar
    24    20    24    1
    25    21    25   ar
    26    21    26    1
    27    23    25   ar
    28    23    27    1
    29    25    28    1
    30    28    29    2
    31    28    30    2
    32    31    32    1
    33    31    33    1
    34    31    34    1
@<TRIPOS>SUBSTRUCTURE
     1 1           1 GROUP             0 ****  ****    0  
@<TRIPOS>MOLECULE
Molecule Name_00001_00032
    34    34     1     0     0
SMALL
NO_CHARGES
****
Generated from the CSD

@<TRIPOS>ATOM
     1 C11      1.4355   0.0462   1.7617   C.3       1 1      0.0000
     2 C12      2.4224   0.7369   0.8255   C.3       1 1      0.0000
     3 H12A     3.3981   0.8073   1.3215   H         1 1      0.0000
     4 C13      2.5851   0.0209  -0.4811   C.2       1 1      0.0000
     5 C14      2.9330  -1.4359  -0.4360   C.3       1 1      0.0000
     6 H14B     2.1416  -1.9785   0.0957   H         1 1      0.0000
     7 H14A     3.8643  -1.5661   0.1289   H         1 1      0.0000
     8 N        2.4557   0.6513  -1.6309   N.pl3     1 1      0.0000
     9 HN       2.5957   0.0949  -2.4741   H         1 1      0.0000
    10 C        2.0043   2.0220  -1.8214   C.3       1 1      0.0000
    11 HC       1.5865   2.1546  -2.8172   H         1 1      0.0000
    12 HB       1.2366   2.2823  -1.0959   H         1 1      0.0000
    13 HA       2.8309   2.7198  -1.7056   H         1 1      0.0000
    14 H12B     2.0741   1.7587   0.6306   H         1 1      0.0000
    15 O1       1.4059   0.7617   2.9939   O.3       1 1      0.0000
    16 H11      1.7841  -0.9804   1.9534   H         1 1      0.0000
    17 OH1      0.7833   0.3145   3.6187   H         1 1      0.0000
    18 C10      0.0562  -0.0137   1.1382   C.ar      1 1      0.0000
    19 C9      -0.6022  -1.2265   0.9892   C.ar      1 1      0.0000
    20 C5      -0.5784   1.1436   0.7089   C.ar      1 1      0.0000
    21 C8      -1.8634  -1.2929   0.4242   C.ar      1 1      0.0000
    22 H9      -0.1189  -2.1392   1.3219   H         1 1      0.0000
    23 C6      -1.8394   1.1013   0.1411   C.ar      1 1      0.0000
    24 H5      -0.0765   2.0990   0.8207   H         1 1      0.0000
    25 C7      -2.4596  -0.1220   0.0092   C.ar      1 1      0.0000
    26 H8      -2.3712  -2.2449   0.3106   H         1 1      0.0000
    27 H6      -2.3286   2.0104  -0.1927   H         1 1      0.0000
    28 NO      -3.7980  -0.1798  -0.5923   N.pl3     1 1      0.0000
    29 ON2     -4.3142   0.8667  -0.9557   O.2       1 1      0.0000
    30 ON1     -4.3357  -1.2716  -0.7027   O.2       1 1      0.0000
    31 C15      3.1029  -2.0335  -1.8245   C.3       1 1      0.0000
    32 H15A     3.8983  -1.5274  -2.3676   H         1 1      0.0000
    33 H15C     3.3546  -3.0901  -1.7615   H         1 1      0.0000
    34 H15B     2.1849  -1.9376  -2.4007   H         1 1      0.0000
@<TRIPOS>BOND
     1     1     2    1
     2     1    15    1
     3     1    16    1
     4     1    18    1
     5     2     3    1
     6     2     4    1
     7     2    14    1
     8     4     5    1
     9     4     8    2
    10     5     6    1
    11     5     7    1
    12     5    31    1
    13     8     9    1
    14     8    10    1
    15    10    11    1
    16    10    12    1
    17    10    13    1
    18    15    17    1
    19    18    19   ar
    20    18    20   ar
    21    19    21   ar
    22    19    22    1
    23    20    23   ar
    24    20    24    1
    25    21    25   ar
    26    21    26    1
    27    23    25   ar
    28    23    27    1
    29    25    28    1
    30    28    29    2
    31    28    30    2
    32    31    32    1
    33    31    33    1
    34    31    34    1
@<TRIPOS>SUBSTRUCTURE
     1 1           1 GROUP             0 ****  ****    0  
@<TRIPOS>MOLECULE
Molecule Name_00001_00033
    34    34     1     0     0
SMALL
NO_CHARGES
****
Generated from the CSD

@<TRIPOS>ATOM
     1 C11      1.0815   0.0819  -0.6254   C.3       1 1      0.0000
     2 C12      1.9012   0.1417   0.6598   C.3       1 1      0.0000
     3 H12A     1.6178  -0.6985   1.3053   H         1 1      0.0000
     4 C13      3.3785   0.0951   0.4116   C.2       1 1      0.0000
     5 C14      4.0131  -1.2525   0.2485   C.3       1 1      0.0000
     6 H14B     3.3202  -2.0225   0.6096   H         1 1      0.0000
     7 H14A     4.9179  -1.3013   0.8669   H         1 1      0.0000
     8 N        4.1026   1.1950   0.3655   N.pl3     1 1      0.0000
     9 HN       5.1029   1.0758   0.2060   H         1 1      0.0000
    10 C        3.6035   2.5623   0.3853   C.3       1 1      0.0000
    11 HC       4.2753   3.2249  -0.1564   H         1 1      0.0000
    12 HB       2.6217   2.6239  -0.0790   H         1 1      0.0000
    13 HA       3.5192   2.9272   1.4068   H         1 1      0.0000
    14 H12B     1.6591   1.0683   1.1948   H         1 1      0.0000
    15 O1       1.4837  -1.0686  -1.3642   O.3       1 1      0.0000
    16 H11      1.2905   0.9817  -1.2244   H         1 1      0.0000
    17 OH1      0.9732  -1.1110  -2.2102   H         1 1      0.0000
    18 C10     -0.4005   0.0339  -0.3151   C.ar      1 1      0.0000
    19 C9      -1.2683   0.9736  -0.8542   C.ar      1 1      0.0000
    20 C5      -0.9203  -0.9538   0.5098   C.ar      1 1      0.0000
    21 C8      -2.6240   0.9376  -0.5804   C.ar      1 1      0.0000
    22 H9      -0.8762   1.7505  -1.5022   H         1 1      0.0000
    23 C6      -2.2725  -1.0093   0.7975   C.ar      1 1      0.0000
    24 H5      -0.2541  -1.6961   0.9369   H         1 1      0.0000
    25 C7      -3.1014  -0.0578   0.2442   C.ar      1 1      0.0000
    26 H8      -3.2957   1.6762  -1.0051   H         1 1      0.0000
    27 H6      -2.6711  -1.7843   1.4439   H         1 1      0.0000
    28 NO      -4.5384  -0.1061   0.5425   N.pl3     1 1      0.0000
    29 ON2     -4.9473  -0.9945   1.2753   O.2       1 1      0.0000
    30 ON1     -5.2612   0.7444   0.0446   O.2       1 1      0.0000
    31 C15      4.3796  -1.5483  -1.1979   C.3       1 1      0.0000
    32 H15A     5.4269  -1.8315  -1.2803   H         1 1      0.0000
    33 H15C     3.7760  -2.3645  -1.5895   H         1 1      0.0000
    34 H15B     4.2146  -0.6741  -1.8241   H         1 1      0.0000
@<TRIPOS>BOND
     1     1     2    1
     2     1    15    1
     3     1    16    1
     4     1    18    1
     5     2     3    1
     6     2     4    1
     7     2    14    1
     8     4     5    1
     9     4     8    2
    10     5     6    1
    11     5     7    1
    12     5    31    1
    13     8     9    1
    14     8    10    1
    15    10    11    1
    16    10    12    1
    17    10    13    1
    18    15    17    1
    19    18    19   ar
    20    18    20   ar
    21    19    21   ar
    22    19    22    1
    23    20    23   ar
    24    20    24    1
    25    21    25   ar
    26    21    26    1
    27    23    25   ar
    28    23    27    1
    29    25    28    1
    30    28    29    2
    31    28    30    2
    32    31    32    1
    33    31    33    1
    34    31    34    1
@<TRIPOS>SUBSTRUCTURE
     1 1           1 GROUP             0 ****  ****    0  
@<TRIPOS>MOLECULE
Molecule Name_00001_00034
    34    34     1     0     0
SMALL
NO_CHARGES
****
Generated from the CSD

@<TRIPOS>ATOM
     1 C11      1.0794  -0.1197   0.7104   C.3       1 1      0.0000
     2 C12      1.7831  -0.3935  -0.6152   C.3       1 1      0.0000
     3 H12A     1.4203   0.3175  -1.3674   H         1 1      0.0000
     4 C13      3.2748  -0.2865  -0.5163   C.2       1 1      0.0000
     5 C14      4.0207  -1.4652   0.0313   C.3       1 1      0.0000
     6 H14B     3.8340  -2.3373  -0.6073   H         1 1      0.0000
     7 H14A     3.6402  -1.6978   1.0335   H         1 1      0.0000
     8 N        3.9100   0.8124  -0.8703   N.pl3     1 1      0.0000
     9 HN       4.9238   0.8088  -0.7591   H         1 1      0.0000
    10 C        3.3297   1.9755  -1.5256   C.3       1 1      0.0000
    11 HC       4.0928   2.5354  -2.0622   H         1 1      0.0000
    12 HB       2.5650   1.6776  -2.2396   H         1 1      0.0000
    13 HA       2.8721   2.6406  -0.7962   H         1 1      0.0000
    14 H12B     1.5204  -1.4021  -0.9572   H         1 1      0.0000
    15 O1       1.5428   1.1288   1.2180   O.3       1 1      0.0000
    16 H11      1.3421  -0.9151   1.4249   H         1 1      0.0000
    17 OH1      1.2819   1.2145   2.1681   H         1 1      0.0000
    18 C10     -0.4242  -0.1039   0.5266   C.ar      1 1      0.0000
    19 C9      -1.2191   0.7634   1.2630   C.ar      1 1      0.0000
    20 C5      -1.0357  -0.9525  -0.3857   C.ar      1 1      0.0000
    21 C8      -2.5930   0.7889   1.1012   C.ar      1 1      0.0000
    22 H9      -0.7547   1.4337   1.9787   H         1 1      0.0000
    23 C6      -2.4077  -0.9445  -0.5643   C.ar      1 1      0.0000
    24 H5      -0.4267  -1.6347  -0.9696   H         1 1      0.0000
    25 C7      -3.1626  -0.0699   0.1865   C.ar      1 1      0.0000
    26 H8      -3.2076   1.4694   1.6812   H         1 1      0.0000
    27 H6      -2.8783  -1.6115  -1.2790   H         1 1      0.0000
    28 NO      -4.6199  -0.0524   0.0062   N.pl3     1 1      0.0000
    29 ON2     -5.1109  -0.8196  -0.8085   O.2       1 1      0.0000
    30 ON1     -5.2764   0.7286   0.6790   O.2       1 1      0.0000
    31 C15      5.5192  -1.2155   0.1109   C.3       1 1      0.0000
    32 H15A     5.7350  -0.3672   0.7571   H         1 1      0.0000
    33 H15C     6.0345  -2.0862   0.5112   H         1 1      0.0000
    34 H15B     5.9278  -1.0033  -0.8748   H         1 1      0.0000
@<TRIPOS>BOND
     1     1     2    1
     2     1    15    1
     3     1    16    1
     4     1    18    1
     5     2     3    1
     6     2     4    1
     7     2    14    1
     8     4     5    1
     9     4     8    2
    10     5     6    1
    11     5     7    1
    12     5    31    1
    13     8     9    1
    14     8    10    1
    15    10    11    1
    16    10    12    1
    17    10    13    1
    18    15    17    1
    19    18    19   ar
    20    18    20   ar
    21    19    21   ar
    22    19    22    1
    23    20    23   ar
    24    20    24    1
    25    21    25   ar
    26    21    26    1
    27    23    25   ar
    28    23    27    1
    29    25    28    1
    30    28    29    2
    31    28    30    2
    32    31    32    1
    33    31    33    1
    34    31    34    1
@<TRIPOS>SUBSTRUCTURE
     1 1           1 GROUP             0 ****  ****    0  
@<TRIPOS>MOLECULE
Molecule Name_00001_00035
    34    34     1     0     0
SMALL
NO_CHARGES
****
Generated from the CSD

@<TRIPOS>ATOM
     1 C11      1.0072  -0.3273  -0.6469   C.3       1 1      0.0000
     2 C12      1.8311   0.4450   0.3789   C.3       1 1      0.0000
     3 H12A     1.5565   0.1086   1.3860   H         1 1      0.0000
     4 C13      3.3078   0.2739   0.1885   C.2       1 1      0.0000
     5 C14      3.9570  -0.9162   0.8271   C.3       1 1      0.0000
     6 H14B     3.5127  -1.8316   0.4172   H         1 1      0.0000
     7 H14A     3.7548  -0.9009   1.9052   H         1 1      0.0000
     8 N        4.0192   1.1502  -0.4914   N.pl3     1 1      0.0000
     9 HN       5.0201   0.9677  -0.5627   H         1 1      0.0000
    10 C        3.5047   2.2744  -1.2597   C.3       1 1      0.0000
    11 HC       4.1666   2.5072  -2.0912   H         1 1      0.0000
    12 HB       2.5203   2.0498  -1.6646   H         1 1      0.0000
    13 HA       3.4204   3.1616  -0.6356   H         1 1      0.0000
    14 H12B     1.5838   1.5112   0.3055   H         1 1      0.0000
    15 O1       1.4339  -1.6870  -0.6371   O.3       1 1      0.0000
    16 H11      1.1916   0.0975  -1.6458   H         1 1      0.0000
    17 OH1      1.0167  -2.1679  -1.3940   H         1 1      0.0000
    18 C10     -0.4717  -0.2227  -0.3360   C.ar      1 1      0.0000
    19 C9      -1.3233  -1.2927  -0.5735   C.ar      1 1      0.0000
    20 C5      -1.0032   0.9432   0.1976   C.ar      1 1      0.0000
    21 C8      -2.6751  -1.2097  -0.2905   C.ar      1 1      0.0000
    22 H9      -0.9216  -2.2111  -0.9888   H         1 1      0.0000
    23 C6      -2.3517   1.0489   0.4884   C.ar      1 1      0.0000
    24 H5      -0.3491   1.7872   0.3901   H         1 1      0.0000
    25 C7      -3.1647  -0.0348   0.2372   C.ar      1 1      0.0000
    26 H8      -3.3344  -2.0504  -0.4796   H         1 1      0.0000
    27 H6      -2.7596   1.9640   0.9048   H         1 1      0.0000
    28 NO      -4.5978   0.0655   0.5414   N.pl3     1 1      0.0000
    29 ON2     -5.0177   1.1136   1.0090   O.2       1 1      0.0000
    30 ON1     -5.3065  -0.9037   0.3134   O.2       1 1      0.0000
    31 C15      5.4610  -0.9457   0.6010   C.3       1 1      0.0000
    32 H15A     5.9313  -0.0577   1.0181   H         1 1      0.0000
    33 H15C     5.9052  -1.8187   1.0747   H         1 1      0.0000
    34 H15B     5.6905  -0.9833  -0.4619   H         1 1      0.0000
@<TRIPOS>BOND
     1     1     2    1
     2     1    15    1
     3     1    16    1
     4     1    18    1
     5     2     3    1
     6     2     4    1
     7     2    14    1
     8     4     5    1
     9     4     8    2
    10     5     6    1
    11     5     7    1
    12     5    31    1
    13     8     9    1
    14     8    10    1
    15    10    11    1
    16    10    12    1
    17    10    13    1
    18    15    17    1
    19    18    19   ar
    20    18    20   ar
    21    19    21   ar
    22    19    22    1
    23    20    23   ar
    24    20    24    1
    25    21    25   ar
    26    21    26    1
    27    23    25   ar
    28    23    27    1
    29    25    28    1
    30    28    29    2
    31    28    30    2
    32    31    32    1
    33    31    33    1
    34    31    34    1
@<TRIPOS>SUBSTRUCTURE
     1 1           1 GROUP             0 ****  ****    0  
@<TRIPOS>MOLECULE
Molecule Name_00001_00036
    34    34     1     0     0
SMALL
NO_CHARGES
****
Generated from the CSD

@<TRIPOS>ATOM
     1 C11      1.0914  -0.2084  -0.5840   C.3       1 1      0.0000
     2 C12      1.8815   0.5054   0.5085   C.3       1 1      0.0000
     3 H12A     1.6135   0.0779   1.4824   H         1 1      0.0000
     4 C13      3.3644   0.4024   0.3173   C.2       1 1      0.0000
     5 C14      4.0478  -0.8261   0.8360   C.3       1 1      0.0000
     6 H14B     3.3741  -1.3480   1.5268   H         1 1      0.0000
     7 H14A     4.9406  -0.5299   1.4005   H         1 1      0.0000
     8 N        4.0514   1.3670  -0.2604   N.pl3     1 1      0.0000
     9 HN       5.0583   1.2252  -0.3395   H         1 1      0.0000
    10 C        3.5057   2.5479  -0.9135   C.3       1 1      0.0000
    11 HC       4.1657   2.8871  -1.7092   H         1 1      0.0000
    12 HB       2.5323   2.3352  -1.3500   H         1 1      0.0000
    13 HA       3.3876   3.3623  -0.2017   H         1 1      0.0000
    14 H12B     1.5968   1.5647   0.5207   H         1 1      0.0000
    15 O1       1.5481  -1.5560  -0.6640   O.3       1 1      0.0000
    16 H11      1.2821   0.2908  -1.5466   H         1 1      0.0000
    17 OH1      1.0571  -2.0274  -1.3816   H         1 1      0.0000
    18 C10     -0.3943  -0.1577  -0.2923   C.ar      1 1      0.0000
    19 C9      -1.0728   1.0531  -0.2776   C.ar      1 1      0.0000
    20 C5      -1.1071  -1.3214  -0.0394   C.ar      1 1      0.0000
    21 C8      -2.4301   1.1112  -0.0156   C.ar      1 1      0.0000
    22 H9      -0.5288   1.9708  -0.4752   H         1 1      0.0000
    23 C6      -2.4648  -1.2875   0.2250   C.ar      1 1      0.0000
    24 H5      -0.5902  -2.2753  -0.0493   H         1 1      0.0000
    25 C7      -3.1022  -0.0659   0.2319   C.ar      1 1      0.0000
    26 H8      -2.9531   2.0617  -0.0053   H         1 1      0.0000
    27 H6      -3.0148  -2.2017   0.4224   H         1 1      0.0000
    28 NO      -4.5429  -0.0170   0.5116   N.pl3     1 1      0.0000
    29 ON2     -5.1257  -1.0689   0.7293   O.2       1 1      0.0000
    30 ON1     -5.0947   1.0734   0.5143   O.2       1 1      0.0000
    31 C15      4.4544  -1.7769  -0.2797   C.3       1 1      0.0000
    32 H15A     5.5039  -2.0497  -0.1906   H         1 1      0.0000
    33 H15C     3.8628  -2.6893  -0.2436   H         1 1      0.0000
    34 H15B     4.3058  -1.3148  -1.2534   H         1 1      0.0000
@<TRIPOS>BOND
     1     1     2    1
     2     1    15    1
     3     1    16    1
     4     1    18    1
     5     2     3    1
     6     2     4    1
     7     2    14    1
     8     4     5    1
     9     4     8    2
    10     5     6    1
    11     5     7    1
    12     5    31    1
    13     8     9    1
    14     8    10    1
    15    10    11    1
    16    10    12    1
    17    10    13    1
    18    15    17    1
    19    18    19   ar
    20    18    20   ar
    21    19    21   ar
    22    19    22    1
    23    20    23   ar
    24    20    24    1
    25    21    25   ar
    26    21    26    1
    27    23    25   ar
    28    23    27    1
    29    25    28    1
    30    28    29    2
    31    28    30    2
    32    31    32    1
    33    31    33    1
    34    31    34    1
@<TRIPOS>SUBSTRUCTURE
     1 1           1 GROUP             0 ****  ****    0  
@<TRIPOS>MOLECULE
Molecule Name_00001_00037
    34    34     1     0     0
SMALL
NO_CHARGES
****
Generated from the CSD

@<TRIPOS>ATOM
     1 C11      1.4494  -0.0496   1.3119   C.3       1 1      0.0000
     2 C12      2.3004   0.8586   0.4296   C.3       1 1      0.0000
     3 H12A     3.0986   1.3028   1.0366   H         1 1      0.0000
     4 C13      2.9105   0.1364  -0.7333   C.2       1 1      0.0000
     5 C14      4.1936  -0.6008  -0.4972   C.3       1 1      0.0000
     6 H14B     4.8770   0.0401   0.0734   H         1 1      0.0000
     7 H14A     4.6671  -0.8171  -1.4628   H         1 1      0.0000
     8 N        2.3577   0.1685  -1.9290   N.pl3     1 1      0.0000
     9 HN       2.8433  -0.3376  -2.6694   H         1 1      0.0000
    10 C        1.0619   0.7376  -2.2693   C.3       1 1      0.0000
    11 HC       0.4611   0.0210  -2.8255   H         1 1      0.0000
    12 HB       0.5121   1.0149  -1.3725   H         1 1      0.0000
    13 HA       1.1810   1.6279  -2.8831   H         1 1      0.0000
    14 H12B     1.6752   1.6772   0.0521   H         1 1      0.0000
    15 O1       1.5725   0.3888   2.6623   O.3       1 1      0.0000
    16 H11      1.8296  -1.0800   1.2351   H         1 1      0.0000
    17 OH1      1.0401  -0.2026   3.2497   H         1 1      0.0000
    18 C10      0.0017  -0.0276   0.8664   C.ar      1 1      0.0000
    19 C9      -0.4856  -0.9895  -0.0075   C.ar      1 1      0.0000
    20 C5      -0.8671   0.9516   1.3277   C.ar      1 1      0.0000
    21 C8      -1.8067  -0.9812  -0.4187   C.ar      1 1      0.0000
    22 H9       0.1817  -1.7621  -0.3751   H         1 1      0.0000
    23 C6      -2.1920   0.9796   0.9302   C.ar      1 1      0.0000
    24 H5      -0.5005   1.7090   2.0127   H         1 1      0.0000
    25 C7      -2.6375   0.0081   0.0605   C.ar      1 1      0.0000
    26 H8      -2.1798  -1.7364  -1.1026   H         1 1      0.0000
    27 H6      -2.8647   1.7488   1.2948   H         1 1      0.0000
    28 NO      -4.0416   0.0276  -0.3689   N.pl3     1 1      0.0000
    29 ON2     -4.7665   0.9109   0.0643   O.2       1 1      0.0000
    30 ON1     -4.4224  -0.8404  -1.1404   O.2       1 1      0.0000
    31 C15      3.9817  -1.9037   0.2587   C.3       1 1      0.0000
    32 H15A     3.0827  -2.4090  -0.0881   H         1 1      0.0000
    33 H15C     4.8253  -2.5753   0.1138   H         1 1      0.0000
    34 H15B     3.8759  -1.7179   1.3255   H         1 1      0.0000
@<TRIPOS>BOND
     1     1     2    1
     2     1    15    1
     3     1    16    1
     4     1    18    1
     5     2     3    1
     6     2     4    1
     7     2    14    1
     8     4     5    1
     9     4     8    2
    10     5     6    1
    11     5     7    1
    12     5    31    1
    13     8     9    1
    14     8    10    1
    15    10    11    1
    16    10    12    1
    17    10    13    1
    18    15    17    1
    19    18    19   ar
    20    18    20   ar
    21    19    21   ar
    22    19    22    1
    23    20    23   ar
    24    20    24    1
    25    21    25   ar
    26    21    26    1
    27    23    25   ar
    28    23    27    1
    29    25    28    1
    30    28    29    2
    31    28    30    2
    32    31    32    1
    33    31    33    1
    34    31    34    1
@<TRIPOS>SUBSTRUCTURE
     1 1           1 GROUP             0 ****  ****    0  
@<TRIPOS>MOLECULE
Molecule Name_00001_00038
    34    34     1     0     0
SMALL
NO_CHARGES
****
Generated from the CSD

@<TRIPOS>ATOM
     1 C11      1.3259  -0.3258   1.3668   C.3       1 1      0.0000
     2 C12      2.2605   0.5374   0.5249   C.3       1 1      0.0000
     3 H12A     3.0830   0.8959   1.1556   H         1 1      0.0000
     4 C13      2.8273  -0.1953  -0.6534   C.2       1 1      0.0000
     5 C14      4.0178  -1.0742  -0.4175   C.3       1 1      0.0000
     6 H14B     4.1747  -1.7110  -1.2968   H         1 1      0.0000
     7 H14A     3.8165  -1.7305   0.4382   H         1 1      0.0000
     8 N        2.3183  -0.0536  -1.8605   N.pl3     1 1      0.0000
     9 HN       2.7709  -0.5764  -2.6102   H         1 1      0.0000
    10 C        1.1007   0.6641  -2.2085   C.3       1 1      0.0000
    11 HC       0.4758   0.0648  -2.8674   H         1 1      0.0000
    12 HB       0.5221   0.9014  -1.3184   H         1 1      0.0000
    13 HA       1.3349   1.5958  -2.7192   H         1 1      0.0000
    14 H12B     1.7093   1.4155   0.1665   H         1 1      0.0000
    15 O1       1.4549   0.0672   2.7306   O.3       1 1      0.0000
    16 H11      1.6285  -1.3798   1.2690   H         1 1      0.0000
    17 OH1      0.8677  -0.4968   3.2921   H         1 1      0.0000
    18 C10     -0.1068  -0.1822   0.8961   C.ar      1 1      0.0000
    19 C9      -0.6480  -1.0815  -0.0121   C.ar      1 1      0.0000
    20 C5      -0.9081   0.8481   1.3682   C.ar      1 1      0.0000
    21 C8      -1.9562  -0.9622  -0.4465   C.ar      1 1      0.0000
    22 H9      -0.0339  -1.8930  -0.3883   H         1 1      0.0000
    23 C6      -2.2189   0.9871   0.9478   C.ar      1 1      0.0000
    24 H5      -0.4990   1.5576   2.0799   H         1 1      0.0000
    25 C7      -2.7192   0.0749   0.0444   C.ar      1 1      0.0000
    26 H8      -2.3717  -1.6689  -1.1572   H         1 1      0.0000
    27 H6      -2.8387   1.7957   1.3210   H         1 1      0.0000
    28 NO      -4.1089   0.2123  -0.4095   N.pl3     1 1      0.0000
    29 ON2     -4.7735   1.1368   0.0344   O.2       1 1      0.0000
    30 ON1     -4.5388  -0.6042  -1.2109   O.2       1 1      0.0000
    31 C15      5.2832  -0.2743  -0.1472   C.3       1 1      0.0000
    32 H15A     5.1629   0.3514   0.7347   H         1 1      0.0000
    33 H15C     6.1299  -0.9367   0.0201   H         1 1      0.0000
    34 H15B     5.5192   0.3708  -0.9909   H         1 1      0.0000
@<TRIPOS>BOND
     1     1     2    1
     2     1    15    1
     3     1    16    1
     4     1    18    1
     5     2     3    1
     6     2     4    1
     7     2    14    1
     8     4     5    1
     9     4     8    2
    10     5     6    1
    11     5     7    1
    12     5    31    1
    13     8     9    1
    14     8    10    1
    15    10    11    1
    16    10    12    1
    17    10    13    1
    18    15    17    1
    19    18    19   ar
    20    18    20   ar
    21    19    21   ar
    22    19    22    1
    23    20    23   ar
    24    20    24    1
    25    21    25   ar
    26    21    26    1
    27    23    25   ar
    28    23    27    1
    29    25    28    1
    30    28    29    2
    31    28    30    2
    32    31    32    1
    33    31    33    1
    34    31    34    1
@<TRIPOS>SUBSTRUCTURE
     1 1           1 GROUP             0 ****  ****    0  
@<TRIPOS>MOLECULE
Molecule Name_00001_00039
    34    34     1     0     0
SMALL
NO_CHARGES
****
Generated from the CSD

@<TRIPOS>ATOM
     1 C11      1.4261   1.5282   0.6622   C.3       1 1      0.0000
     2 C12      2.3688   1.1574  -0.4784   C.3       1 1      0.0000
     3 H12A     3.3153   1.6967  -0.3512   H         1 1      0.0000
     4 C13      2.6466  -0.3137  -0.5502   C.2       1 1      0.0000
     5 C14      2.1851  -1.0487  -1.7718   C.3       1 1      0.0000
     6 H14B     2.6630  -2.0358  -1.7997   H         1 1      0.0000
     7 H14A     2.5046  -0.4980  -2.6652   H         1 1      0.0000
     8 N        3.2496  -0.9480   0.4348   N.pl3     1 1      0.0000
     9 HN       3.3885  -1.9511   0.3135   H         1 1      0.0000
    10 C        3.8538  -0.3436   1.6131   C.3       1 1      0.0000
    11 HC       4.6815  -0.9500   1.9750   H         1 1      0.0000
    12 HB       4.2364   0.6494   1.3871   H         1 1      0.0000
    13 HA       3.1252  -0.2518   2.4159   H         1 1      0.0000
    14 H12B     1.9258   1.4828  -1.4278   H         1 1      0.0000
    15 O1       1.2921   2.9467   0.6939   O.3       1 1      0.0000
    16 H11      1.8659   1.1899   1.6132   H         1 1      0.0000
    17 OH1      0.6973   3.2040   1.4410   H         1 1      0.0000
    18 C10      0.0776   0.8619   0.4822   C.ar      1 1      0.0000
    19 C9      -0.2060  -0.3444   1.1075   C.ar      1 1      0.0000
    20 C5      -0.9026   1.4473  -0.3070   C.ar      1 1      0.0000
    21 C8      -1.4352  -0.9604   0.9530   C.ar      1 1      0.0000
    22 H9       0.5501  -0.8128   1.7289   H         1 1      0.0000
    23 C6      -2.1388   0.8495  -0.4759   C.ar      1 1      0.0000
    24 H5      -0.6956   2.3911  -0.8006   H         1 1      0.0000
    25 C7      -2.3816  -0.3484   0.1603   C.ar      1 1      0.0000
    26 H8      -1.6489  -1.9037   1.4446   H         1 1      0.0000
    27 H6      -2.8996   1.3132  -1.0951   H         1 1      0.0000
    28 NO      -3.6898  -0.9928  -0.0117   N.pl3     1 1      0.0000
    29 ON2     -4.5192  -0.4383  -0.7175   O.2       1 1      0.0000
    30 ON1     -3.8907  -2.0548   0.5587   O.2       1 1      0.0000
    31 C15      0.6744  -1.2234  -1.8058   C.3       1 1      0.0000
    32 H15A     0.1749  -0.2573  -1.8343   H         1 1      0.0000
    33 H15C     0.3711  -1.7878  -2.6851   H         1 1      0.0000
    34 H15B     0.3280  -1.7581  -0.9238   H         1 1      0.0000
@<TRIPOS>BOND
     1     1     2    1
     2     1    15    1
     3     1    16    1
     4     1    18    1
     5     2     3    1
     6     2     4    1
     7     2    14    1
     8     4     5    1
     9     4     8    2
    10     5     6    1
    11     5     7    1
    12     5    31    1
    13     8     9    1
    14     8    10    1
    15    10    11    1
    16    10    12    1
    17    10    13    1
    18    15    17    1
    19    18    19   ar
    20    18    20   ar
    21    19    21   ar
    22    19    22    1
    23    20    23   ar
    24    20    24    1
    25    21    25   ar
    26    21    26    1
    27    23    25   ar
    28    23    27    1
    29    25    28    1
    30    28    29    2
    31    28    30    2
    32    31    32    1
    33    31    33    1
    34    31    34    1
@<TRIPOS>SUBSTRUCTURE
     1 1           1 GROUP             0 ****  ****    0  
@<TRIPOS>MOLECULE
Molecule Name_00001_00040
    34    34     1     0     0
SMALL
NO_CHARGES
****
Generated from the CSD

@<TRIPOS>ATOM
     1 C11      1.0940   0.2757   0.6556   C.3       1 1      0.0000
     2 C12      1.7912   0.3416  -0.6998   C.3       1 1      0.0000
     3 H12A     1.7740   1.3767  -1.0620   H         1 1      0.0000
     4 C13      3.2102  -0.1385  -0.6493   C.2       1 1      0.0000
     5 C14      3.5138  -1.4732  -1.2590   C.3       1 1      0.0000
     6 H14B     3.2530  -1.4498  -2.3243   H         1 1      0.0000
     7 H14A     2.8904  -2.2379  -0.7795   H         1 1      0.0000
     8 N        4.1553   0.5709  -0.0664   N.pl3     1 1      0.0000
     9 HN       5.0918   0.1671  -0.0630   H         1 1      0.0000
    10 C        4.0268   1.9248   0.4526   C.3       1 1      0.0000
    11 HC       4.9635   2.4681   0.3463   H         1 1      0.0000
    12 HB       3.2553   2.4741  -0.0826   H         1 1      0.0000
    13 HA       3.7623   1.9097   1.5079   H         1 1      0.0000
    14 H12B     1.2333  -0.2715  -1.4183   H         1 1      0.0000
    15 O1       1.3956   1.4674   1.3766   O.3       1 1      0.0000
    16 H11      1.4833  -0.5886   1.2157   H         1 1      0.0000
    17 OH1      0.9649   1.4312   2.2662   H         1 1      0.0000
    18 C10     -0.4020   0.1129   0.4822   C.ar      1 1      0.0000
    19 C9      -1.0739  -0.9445   1.0797   C.ar      1 1      0.0000
    20 C5      -1.1311   1.0211  -0.2729   C.ar      1 1      0.0000
    21 C8      -2.4405  -1.1013   0.9310   C.ar      1 1      0.0000
    22 H9      -0.5172  -1.6612   1.6744   H         1 1      0.0000
    23 C6      -2.4982   0.8842  -0.4354   C.ar      1 1      0.0000
    24 H5      -0.6194   1.8536  -0.7445   H         1 1      0.0000
    25 C7      -3.1287  -0.1795   0.1726   C.ar      1 1      0.0000
    26 H8      -2.9583  -1.9310   1.4008   H         1 1      0.0000
    27 H6      -3.0609   1.5981  -1.0279   H         1 1      0.0000
    28 NO      -4.5794  -0.3356   0.0071   N.pl3     1 1      0.0000
    29 ON2     -5.1764   0.4896  -0.6683   O.2       1 1      0.0000
    30 ON1     -5.1249  -1.2837   0.5521   O.2       1 1      0.0000
    31 C15      4.9783  -1.8572  -1.1111   C.3       1 1      0.0000
    32 H15A     5.2592  -1.9094  -0.0613   H         1 1      0.0000
    33 H15C     5.1696  -2.8288  -1.5619   H         1 1      0.0000
    34 H15B     5.6199  -1.1256  -1.5977   H         1 1      0.0000
@<TRIPOS>BOND
     1     1     2    1
     2     1    15    1
     3     1    16    1
     4     1    18    1
     5     2     3    1
     6     2     4    1
     7     2    14    1
     8     4     5    1
     9     4     8    2
    10     5     6    1
    11     5     7    1
    12     5    31    1
    13     8     9    1
    14     8    10    1
    15    10    11    1
    16    10    12    1
    17    10    13    1
    18    15    17    1
    19    18    19   ar
    20    18    20   ar
    21    19    21   ar
    22    19    22    1
    23    20    23   ar
    24    20    24    1
    25    21    25   ar
    26    21    26    1
    27    23    25   ar
    28    23    27    1
    29    25    28    1
    30    28    29    2
    31    28    30    2
    32    31    32    1
    33    31    33    1
    34    31    34    1
@<TRIPOS>SUBSTRUCTURE
     1 1           1 GROUP             0 ****  ****    0  
@<TRIPOS>MOLECULE
Molecule Name_00001_00041
    34    34     1     0     0
SMALL
NO_CHARGES
****
Generated from the CSD

@<TRIPOS>ATOM
     1 C11      1.2340   1.0079   1.0749   C.3       1 1      0.0000
     2 C12      2.0966   1.0873  -0.1808   C.3       1 1      0.0000
     3 H12A     2.8061   1.9172  -0.0766   H         1 1      0.0000
     4 C13      2.8548  -0.1776  -0.4482   C.2       1 1      0.0000
     5 C14      2.1211  -1.2982  -1.1201   C.3       1 1      0.0000
     6 H14B     1.1501  -1.4378  -0.6292   H         1 1      0.0000
     7 H14A     2.6929  -2.2264  -0.9986   H         1 1      0.0000
     8 N        4.1133  -0.3148  -0.0826   N.pl3     1 1      0.0000
     9 HN       4.5527  -1.2117  -0.2890   H         1 1      0.0000
    10 C        4.9753   0.7239   0.4623   C.3       1 1      0.0000
    11 HC       6.0228   0.4790   0.2997   H         1 1      0.0000
    12 HB       4.7753   1.6825  -0.0115   H         1 1      0.0000
    13 HA       4.8159   0.8349   1.5329   H         1 1      0.0000
    14 H12B     1.4536   1.3059  -1.0423   H         1 1      0.0000
    15 O1       1.1869   2.3008   1.6727   O.3       1 1      0.0000
    16 H11      1.6983   0.3041   1.7830   H         1 1      0.0000
    17 OH1      0.6454   2.2611   2.4993   H         1 1      0.0000
    18 C10     -0.1590   0.5166   0.7391   C.ar      1 1      0.0000
    19 C9      -0.6852  -0.6049   1.3651   C.ar      1 1      0.0000
    20 C5      -0.9385   1.1816  -0.1972   C.ar      1 1      0.0000
    21 C8      -1.9575  -1.0607   1.0686   C.ar      1 1      0.0000
    22 H9      -0.0879  -1.1337   2.1004   H         1 1      0.0000
    23 C6      -2.2133   0.7439  -0.5096   C.ar      1 1      0.0000
    24 H5      -0.5409   2.0607  -0.6934   H         1 1      0.0000
    25 C7      -2.6996  -0.3741   0.1325   C.ar      1 1      0.0000
    26 H8      -2.3614  -1.9386   1.5619   H         1 1      0.0000
    27 H6      -2.8162   1.2688  -1.2432   H         1 1      0.0000
    28 NO      -4.0512  -0.8485  -0.1908   N.pl3     1 1      0.0000
    29 ON2     -4.6976  -0.2295  -1.0230   O.2       1 1      0.0000
    30 ON1     -4.4691  -1.8412   0.3866   O.2       1 1      0.0000
    31 C15      1.8992  -1.0380  -2.6023   C.3       1 1      0.0000
    32 H15A     2.8490  -0.9171  -3.1191   H         1 1      0.0000
    33 H15C     1.3654  -1.8662  -3.0636   H         1 1      0.0000
    34 H15B     1.3145  -0.1327  -2.7517   H         1 1      0.0000
@<TRIPOS>BOND
     1     1     2    1
     2     1    15    1
     3     1    16    1
     4     1    18    1
     5     2     3    1
     6     2     4    1
     7     2    14    1
     8     4     5    1
     9     4     8    2
    10     5     6    1
    11     5     7    1
    12     5    31    1
    13     8     9    1
    14     8    10    1
    15    10    11    1
    16    10    12    1
    17    10    13    1
    18    15    17    1
    19    18    19   ar
    20    18    20   ar
    21    19    21   ar
    22    19    22    1
    23    20    23   ar
    24    20    24    1
    25    21    25   ar
    26    21    26    1
    27    23    25   ar
    28    23    27    1
    29    25    28    1
    30    28    29    2
    31    28    30    2
    32    31    32    1
    33    31    33    1
    34    31    34    1
@<TRIPOS>SUBSTRUCTURE
     1 1           1 GROUP             0 ****  ****    0  
@<TRIPOS>MOLECULE
Molecule Name_00001_00042
    34    34     1     0     0
SMALL
NO_CHARGES
****
Generated from the CSD

@<TRIPOS>ATOM
     1 C11      1.4382  -0.2428   1.5648   C.3       1 1      0.0000
     2 C12      2.4005   0.5497   0.6854   C.3       1 1      0.0000
     3 H12A     3.4007   0.5241   1.1347   H         1 1      0.0000
     4 C13      2.4770   0.0238  -0.7160   C.2       1 1      0.0000
     5 C14      2.7796  -1.4328  -0.8956   C.3       1 1      0.0000
     6 H14B     2.5778  -1.7166  -1.9359   H         1 1      0.0000
     7 H14A     2.1119  -2.0207  -0.2538   H         1 1      0.0000
     8 N        2.3126   0.8149  -1.7568   N.pl3     1 1      0.0000
     9 HN       2.3938   0.3813  -2.6763   H         1 1      0.0000
    10 C        1.8968   2.2096  -1.7278   C.3       1 1      0.0000
    11 HC       1.4362   2.4935  -2.6717   H         1 1      0.0000
    12 HB       1.1735   2.3826  -0.9338   H         1 1      0.0000
    13 HA       2.7500   2.8629  -1.5576   H         1 1      0.0000
    14 H12B     2.0762   1.5972   0.6554   H         1 1      0.0000
    15 O1       1.4911   0.2899   2.8856   O.3       1 1      0.0000
    16 H11      1.7625  -1.2947   1.5910   H         1 1      0.0000
    17 OH1      0.8852  -0.2263   3.4727   H         1 1      0.0000
    18 C10      0.0293  -0.1787   1.0121   C.ar      1 1      0.0000
    19 C9      -0.6742  -1.3409   0.7278   C.ar      1 1      0.0000
    20 C5      -0.5878   1.0436   0.7845   C.ar      1 1      0.0000
    21 C8      -1.9627  -1.2944   0.2258   C.ar      1 1      0.0000
    22 H9      -0.2051  -2.3035   0.9024   H         1 1      0.0000
    23 C6      -1.8754   1.1143   0.2831   C.ar      1 1      0.0000
    24 H5      -0.0506   1.9604   1.0038   H         1 1      0.0000
    25 C7      -2.5403  -0.0618   0.0123   C.ar      1 1      0.0000
    26 H8      -2.5057  -2.2075   0.0054   H         1 1      0.0000
    27 H6      -2.3506   2.0737   0.1073   H         1 1      0.0000
    28 NO      -3.9072   0.0004  -0.5206   N.pl3     1 1      0.0000
    29 ON2     -4.4065   1.1005  -0.7049   O.2       1 1      0.0000
    30 ON1     -4.4844  -1.0508  -0.7560   O.2       1 1      0.0000
    31 C15      4.2237  -1.7699  -0.5566   C.3       1 1      0.0000
    32 H15A     4.4458  -1.5183   0.4784   H         1 1      0.0000
    33 H15C     4.4148  -2.8319  -0.6957   H         1 1      0.0000
    34 H15B     4.9091  -1.2158  -1.1946   H         1 1      0.0000
@<TRIPOS>BOND
     1     1     2    1
     2     1    15    1
     3     1    16    1
     4     1    18    1
     5     2     3    1
     6     2     4    1
     7     2    14    1
     8     4     5    1
     9     4     8    2
    10     5     6    1
    11     5     7    1
    12     5    31    1
    13     8     9    1
    14     8    10    1
    15    10    11    1
    16    10    12    1
    17    10    13    1
    18    15    17    1
    19    18    19   ar
    20    18    20   ar
    21    19    21   ar
    22    19    22    1
    23    20    23   ar
    24    20    24    1
    25    21    25   ar
    26    21    26    1
    27    23    25   ar
    28    23    27    1
    29    25    28    1
    30    28    29    2
    31    28    30    2
    32    31    32    1
    33    31    33    1
    34    31    34    1
@<TRIPOS>SUBSTRUCTURE
     1 1           1 GROUP             0 ****  ****    0  
@<TRIPOS>MOLECULE
Molecule Name_00001_00043
    34    34     1     0     0
SMALL
NO_CHARGES
****
Generated from the CSD

@<TRIPOS>ATOM
     1 C11      1.1512  -0.4537  -0.4067   C.3       1 1      0.0000
     2 C12      1.9216   0.5988   0.3846   C.3       1 1      0.0000
     3 H12A     1.8097   0.3947   1.4564   H         1 1      0.0000
     4 C13      3.3799   0.6351   0.0403   C.2       1 1      0.0000
     5 C14      4.3511   0.1683   1.0816   C.3       1 1      0.0000
     6 H14B     4.0932   0.6256   2.0448   H         1 1      0.0000
     7 H14A     5.3589   0.5063   0.8108   H         1 1      0.0000
     8 N        3.8000   1.0866  -1.1241   N.pl3     1 1      0.0000
     9 HN       4.8088   1.0907  -1.2743   H         1 1      0.0000
    10 C        2.9695   1.4527  -2.2621   C.3       1 1      0.0000
    11 HC       2.8685   0.6157  -2.9498   H         1 1      0.0000
    12 HB       1.9733   1.7451  -1.9376   H         1 1      0.0000
    13 HA       3.4074   2.2869  -2.8064   H         1 1      0.0000
    14 H12B     1.4844   1.5852   0.1865   H         1 1      0.0000
    15 O1       1.6001  -1.7433   0.0013   O.3       1 1      0.0000
    16 H11      1.3669  -0.3233  -1.4785   H         1 1      0.0000
    17 OH1      1.1221  -2.4368  -0.5169   H         1 1      0.0000
    18 C10     -0.3402  -0.3058  -0.1862   C.ar      1 1      0.0000
    19 C9      -1.2410  -1.1114  -0.8689   C.ar      1 1      0.0000
    20 C5      -0.8348   0.6344   0.7070   C.ar      1 1      0.0000
    21 C8      -2.6050  -0.9874  -0.6730   C.ar      1 1      0.0000
    22 H9      -0.8686  -1.8519  -1.5690   H         1 1      0.0000
    23 C6      -2.1947   0.7762   0.9189   C.ar      1 1      0.0000
    24 H5      -0.1423   1.2700   1.2490   H         1 1      0.0000
    25 C7      -3.0568  -0.0414   0.2211   C.ar      1 1      0.0000
    26 H8      -3.3027  -1.6205  -1.2111   H         1 1      0.0000
    27 H6      -2.5735   1.5140   1.6183   H         1 1      0.0000
    28 NO      -4.5024   0.0999   0.4371   N.pl3     1 1      0.0000
    29 ON2     -4.8884   0.9431   1.2331   O.2       1 1      0.0000
    30 ON1     -5.2549  -0.6321  -0.1887   O.2       1 1      0.0000
    31 C15      4.3550  -1.3455   1.2320   C.3       1 1      0.0000
    32 H15A     3.9888  -1.8240   0.3262   H         1 1      0.0000
    33 H15C     5.3612  -1.7112   1.4255   H         1 1      0.0000
    34 H15B     3.7179  -1.6525   2.0589   H         1 1      0.0000
@<TRIPOS>BOND
     1     1     2    1
     2     1    15    1
     3     1    16    1
     4     1    18    1
     5     2     3    1
     6     2     4    1
     7     2    14    1
     8     4     5    1
     9     4     8    2
    10     5     6    1
    11     5     7    1
    12     5    31    1
    13     8     9    1
    14     8    10    1
    15    10    11    1
    16    10    12    1
    17    10    13    1
    18    15    17    1
    19    18    19   ar
    20    18    20   ar
    21    19    21   ar
    22    19    22    1
    23    20    23   ar
    24    20    24    1
    25    21    25   ar
    26    21    26    1
    27    23    25   ar
    28    23    27    1
    29    25    28    1
    30    28    29    2
    31    28    30    2
    32    31    32    1
    33    31    33    1
    34    31    34    1
@<TRIPOS>SUBSTRUCTURE
     1 1           1 GROUP             0 ****  ****    0  
@<TRIPOS>MOLECULE
Molecule Name_00001_00044
    34    34     1     0     0
SMALL
NO_CHARGES
****
Generated from the CSD

@<TRIPOS>ATOM
     1 C11      1.1439   0.1300   0.7915   C.3       1 1      0.0000
     2 C12      1.8931  -0.2793  -0.4729   C.3       1 1      0.0000
     3 H12A     1.5122   0.3038  -1.3201   H         1 1      0.0000
     4 C13      3.3743  -0.0785  -0.3636   C.2       1 1      0.0000
     5 C14      4.1670  -1.1307   0.3505   C.3       1 1      0.0000
     6 H14B     3.6650  -1.3815   1.2931   H         1 1      0.0000
     7 H14A     5.1579  -0.7296   0.5966   H         1 1      0.0000
     8 N        3.9599   0.9964  -0.8515   N.pl3     1 1      0.0000
     9 HN       4.9695   1.0633  -0.7233   H         1 1      0.0000
    10 C        3.3361   2.0280  -1.6673   C.3       1 1      0.0000
    11 HC       4.0819   2.5522  -2.2612   H         1 1      0.0000
    12 HB       2.6055   1.5959  -2.3477   H         1 1      0.0000
    13 HA       2.8268   2.7585  -1.0421   H         1 1      0.0000
    14 H12B     1.6916  -1.3375  -0.6803   H         1 1      0.0000
    15 O1       1.5292   1.4586   1.1342   O.3       1 1      0.0000
    16 H11      1.4301  -0.5472   1.6110   H         1 1      0.0000
    17 OH1      1.2411   1.6560   2.0595   H         1 1      0.0000
    18 C10     -0.3535   0.0386   0.5814   C.ar      1 1      0.0000
    19 C9      -1.2103   0.9516   1.1805   C.ar      1 1      0.0000
    20 C5      -0.8976  -0.9564  -0.2187   C.ar      1 1      0.0000
    21 C8      -2.5792   0.8799   0.9931   C.ar      1 1      0.0000
    22 H9      -0.7989   1.7360   1.8072   H         1 1      0.0000
    23 C6      -2.2634  -1.0476  -0.4203   C.ar      1 1      0.0000
    24 H5      -0.2398  -1.6761  -0.6948   H         1 1      0.0000
    25 C7      -3.0809  -0.1233   0.1928   C.ar      1 1      0.0000
    26 H8      -3.2424   1.5970   1.4655   H         1 1      0.0000
    27 H6      -2.6810  -1.8289  -1.0467   H         1 1      0.0000
    28 NO      -4.5323  -0.2100  -0.0133   N.pl3     1 1      0.0000
    29 ON2     -4.9627  -1.1049  -0.7256   O.2       1 1      0.0000
    30 ON1     -5.2448   0.6167   0.5367   O.2       1 1      0.0000
    31 C15      4.3314  -2.3945  -0.4801   C.3       1 1      0.0000
    32 H15A     4.8472  -2.1783  -1.4134   H         1 1      0.0000
    33 H15C     4.9098  -3.1398   0.0620   H         1 1      0.0000
    34 H15B     3.3624  -2.8268  -0.7207   H         1 1      0.0000
@<TRIPOS>BOND
     1     1     2    1
     2     1    15    1
     3     1    16    1
     4     1    18    1
     5     2     3    1
     6     2     4    1
     7     2    14    1
     8     4     5    1
     9     4     8    2
    10     5     6    1
    11     5     7    1
    12     5    31    1
    13     8     9    1
    14     8    10    1
    15    10    11    1
    16    10    12    1
    17    10    13    1
    18    15    17    1
    19    18    19   ar
    20    18    20   ar
    21    19    21   ar
    22    19    22    1
    23    20    23   ar
    24    20    24    1
    25    21    25   ar
    26    21    26    1
    27    23    25   ar
    28    23    27    1
    29    25    28    1
    30    28    29    2
    31    28    30    2
    32    31    32    1
    33    31    33    1
    34    31    34    1
@<TRIPOS>SUBSTRUCTURE
     1 1           1 GROUP             0 ****  ****    0  
@<TRIPOS>MOLECULE
Molecule Name_00001_00045
    34    34     1     0     0
SMALL
NO_CHARGES
****
Generated from the CSD

@<TRIPOS>ATOM
     1 C11      1.2035  -0.1265   0.5687   C.3       1 1      0.0000
     2 C12      1.8605  -0.2438  -0.8032   C.3       1 1      0.0000
     3 H12A     1.4527   0.5312  -1.4636   H         1 1      0.0000
     4 C13      3.3522  -0.1087  -0.7486   C.2       1 1      0.0000
     5 C14      4.1452  -1.3188  -0.3582   C.3       1 1      0.0000
     6 H14B     5.2040  -1.1439  -0.5859   H         1 1      0.0000
     7 H14A     3.8122  -2.1756  -0.9569   H         1 1      0.0000
     8 N        3.9483   1.0378  -1.0063   N.pl3     1 1      0.0000
     9 HN       4.9655   1.0491  -0.9337   H         1 1      0.0000
    10 C        3.3169   2.2482  -1.5115   C.3       1 1      0.0000
    11 HC       4.0461   2.8829  -2.0106   H         1 1      0.0000
    12 HB       2.5331   2.0077  -2.2266   H         1 1      0.0000
    13 HA       2.8715   2.8185  -0.6991   H         1 1      0.0000
    14 H12B     1.6070  -1.2184  -1.2382   H         1 1      0.0000
    15 O1       1.6608   1.0733   1.1870   O.3       1 1      0.0000
    16 H11      1.5099  -0.9853   1.1858   H         1 1      0.0000
    17 OH1      1.4276   1.0573   2.1480   H         1 1      0.0000
    18 C10     -0.3061  -0.1282   0.4427   C.ar      1 1      0.0000
    19 C9      -1.0893   0.6380   1.2948   C.ar      1 1      0.0000
    20 C5      -0.9353  -0.8916  -0.5308   C.ar      1 1      0.0000
    21 C8      -2.4686   0.6467   1.1870   C.ar      1 1      0.0000
    22 H9      -0.6110   1.2410   2.0596   H         1 1      0.0000
    23 C6      -2.3130  -0.8984  -0.6572   C.ar      1 1      0.0000
    24 H5      -0.3357  -1.4941  -1.2051   H         1 1      0.0000
    25 C7      -3.0558  -0.1255   0.2085   C.ar      1 1      0.0000
    26 H8      -3.0739   1.2478   1.8574   H         1 1      0.0000
    27 H6      -2.7974  -1.4984  -1.4205   H         1 1      0.0000
    28 NO      -4.5190  -0.1248   0.0845   N.pl3     1 1      0.0000
    29 ON2     -5.0257  -0.8145  -0.7879   O.2       1 1      0.0000
    30 ON1     -5.1646   0.5655   0.8592   O.2       1 1      0.0000
    31 C15      4.0002  -1.6540   1.1185   C.3       1 1      0.0000
    32 H15A     3.0744  -2.1953   1.3020   H         1 1      0.0000
    33 H15C     4.8280  -2.2740   1.4563   H         1 1      0.0000
    34 H15B     3.9879  -0.7477   1.7203   H         1 1      0.0000
@<TRIPOS>BOND
     1     1     2    1
     2     1    15    1
     3     1    16    1
     4     1    18    1
     5     2     3    1
     6     2     4    1
     7     2    14    1
     8     4     5    1
     9     4     8    2
    10     5     6    1
    11     5     7    1
    12     5    31    1
    13     8     9    1
    14     8    10    1
    15    10    11    1
    16    10    12    1
    17    10    13    1
    18    15    17    1
    19    18    19   ar
    20    18    20   ar
    21    19    21   ar
    22    19    22    1
    23    20    23   ar
    24    20    24    1
    25    21    25   ar
    26    21    26    1
    27    23    25   ar
    28    23    27    1
    29    25    28    1
    30    28    29    2
    31    28    30    2
    32    31    32    1
    33    31    33    1
    34    31    34    1
@<TRIPOS>SUBSTRUCTURE
     1 1           1 GROUP             0 ****  ****    0  
@<TRIPOS>MOLECULE
Molecule Name_00001_00046
    34    34     1     0     0
SMALL
NO_CHARGES
****
Generated from the CSD

@<TRIPOS>ATOM
     1 C11      1.0470  -0.1206  -0.8647   C.3       1 1      0.0000
     2 C12      1.9278   0.3715   0.2796   C.3       1 1      0.0000
     3 H12A     1.7015  -0.2096   1.1818   H         1 1      0.0000
     4 C13      3.3917   0.2611  -0.0226   C.2       1 1      0.0000
     5 C14      4.0664  -1.0426   0.2786   C.3       1 1      0.0000
     6 H14B     5.0553  -1.0538  -0.1962   H         1 1      0.0000
     7 H14A     3.4785  -1.8607  -0.1556   H         1 1      0.0000
     8 N        4.0716   1.2794  -0.5093   N.pl3     1 1      0.0000
     9 HN       5.0664   1.1262  -0.6740   H         1 1      0.0000
    10 C        3.5242   2.5510  -0.9589   C.3       1 1      0.0000
    11 HC       4.1432   2.9804  -1.7438   H         1 1      0.0000
    12 HB       2.5188   2.4229  -1.3540   H         1 1      0.0000
    13 HA       3.4776   3.2628  -0.1373   H         1 1      0.0000
    14 H12B     1.6860   1.4205   0.4904   H         1 1      0.0000
    15 O1       1.4642  -1.4357  -1.2219   O.3       1 1      0.0000
    16 H11      1.1829   0.5446  -1.7314   H         1 1      0.0000
    17 OH1      1.0061  -1.7112  -2.0540   H         1 1      0.0000
    18 C10     -0.4132  -0.1075  -0.4619   C.ar      1 1      0.0000
    19 C9      -1.2834  -1.0875  -0.9190   C.ar      1 1      0.0000
    20 C5      -0.9084   0.8815   0.3767   C.ar      1 1      0.0000
    21 C8      -2.6183  -1.0874  -0.5551   C.ar      1 1      0.0000
    22 H9      -0.9100  -1.8679  -1.5738   H         1 1      0.0000
    23 C6      -2.2394   0.9016   0.7537   C.ar      1 1      0.0000
    24 H5      -0.2393   1.6530   0.7432   H         1 1      0.0000
    25 C7      -3.0719  -0.0879   0.2778   C.ar      1 1      0.0000
    26 H8      -3.2923  -1.8567  -0.9173   H         1 1      0.0000
    27 H6      -2.6189   1.6786   1.4091   H         1 1      0.0000
    28 NO      -4.4868  -0.0770   0.6708   N.pl3     1 1      0.0000
    29 ON2     -4.8747   0.8155   1.4099   O.2       1 1      0.0000
    30 ON1     -5.2130  -0.9609   0.2410   O.2       1 1      0.0000
    31 C15      4.2264  -1.2798   1.7726   C.3       1 1      0.0000
    32 H15A     3.2571  -1.2954   2.2666   H         1 1      0.0000
    33 H15C     4.7183  -2.2317   1.9614   H         1 1      0.0000
    34 H15B     4.8254  -0.4929   2.2261   H         1 1      0.0000
@<TRIPOS>BOND
     1     1     2    1
     2     1    15    1
     3     1    16    1
     4     1    18    1
     5     2     3    1
     6     2     4    1
     7     2    14    1
     8     4     5    1
     9     4     8    2
    10     5     6    1
    11     5     7    1
    12     5    31    1
    13     8     9    1
    14     8    10    1
    15    10    11    1
    16    10    12    1
    17    10    13    1
    18    15    17    1
    19    18    19   ar
    20    18    20   ar
    21    19    21   ar
    22    19    22    1
    23    20    23   ar
    24    20    24    1
    25    21    25   ar
    26    21    26    1
    27    23    25   ar
    28    23    27    1
    29    25    28    1
    30    28    29    2
    31    28    30    2
    32    31    32    1
    33    31    33    1
    34    31    34    1
@<TRIPOS>SUBSTRUCTURE
     1 1           1 GROUP             0 ****  ****    0  
@<TRIPOS>MOLECULE
Molecule Name_00001_00047
    34    34     1     0     0
SMALL
NO_CHARGES
****
Generated from the CSD

@<TRIPOS>ATOM
     1 C11      1.1050   1.5154   0.1426   C.3       1 1      0.0000
     2 C12      1.9845   0.8744  -0.9264   C.3       1 1      0.0000
     3 H12A     2.6613   1.6338  -1.3367   H         1 1      0.0000
     4 C13      2.7929  -0.2746  -0.4043   C.2       1 1      0.0000
     5 C14      2.1087  -1.6011  -0.2709   C.3       1 1      0.0000
     6 H14B     1.7225  -1.9068  -1.2511   H         1 1      0.0000
     7 H14A     1.2529  -1.4979   0.4075   H         1 1      0.0000
     8 N        4.0522  -0.1229  -0.0475   N.pl3     1 1      0.0000
     9 HN       4.5274  -0.9512   0.3107   H         1 1      0.0000
    10 C        4.8689   1.0671  -0.2366   C.3       1 1      0.0000
    11 HC       5.9264   0.8114  -0.2402   H         1 1      0.0000
    12 HB       4.6356   1.5518  -1.1821   H         1 1      0.0000
    13 HA       4.6968   1.7839   0.5636   H         1 1      0.0000
    14 H12B     1.3481   0.5187  -1.7461   H         1 1      0.0000
    15 O1       0.9892   2.9069  -0.1428   O.3       1 1      0.0000
    16 H11      1.5884   1.3915   1.1241   H         1 1      0.0000
    17 OH1      0.4360   3.3403   0.5531   H         1 1      0.0000
    18 C10     -0.2585   0.8565   0.1820   C.ar      1 1      0.0000
    19 C9      -1.2208   1.2726   1.0915   C.ar      1 1      0.0000
    20 C5      -0.5740  -0.1724  -0.6945   C.ar      1 1      0.0000
    21 C8      -2.4705   0.6804   1.1343   C.ar      1 1      0.0000
    22 H9      -0.9888   2.0770   1.7816   H         1 1      0.0000
    23 C6      -1.8171  -0.7793  -0.6699   C.ar      1 1      0.0000
    24 H5       0.1679  -0.5070  -1.4122   H         1 1      0.0000
    25 C7      -2.7449  -0.3389   0.2486   C.ar      1 1      0.0000
    26 H8      -3.2171   1.0109   1.8487   H         1 1      0.0000
    27 H6      -2.0558  -1.5836  -1.3580   H         1 1      0.0000
    28 NO      -4.0677  -0.9755   0.2846   N.pl3     1 1      0.0000
    29 ON2     -4.2968  -1.8781  -0.5068   O.2       1 1      0.0000
    30 ON1     -4.8804  -0.5744   1.1045   O.2       1 1      0.0000
    31 C15      3.0393  -2.6815   0.2590   C.3       1 1      0.0000
    32 H15A     3.4208  -2.4137   1.2421   H         1 1      0.0000
    33 H15C     2.5170  -3.6320   0.3454   H         1 1      0.0000
    34 H15B     3.8879  -2.8205  -0.4076   H         1 1      0.0000
@<TRIPOS>BOND
     1     1     2    1
     2     1    15    1
     3     1    16    1
     4     1    18    1
     5     2     3    1
     6     2     4    1
     7     2    14    1
     8     4     5    1
     9     4     8    2
    10     5     6    1
    11     5     7    1
    12     5    31    1
    13     8     9    1
    14     8    10    1
    15    10    11    1
    16    10    12    1
    17    10    13    1
    18    15    17    1
    19    18    19   ar
    20    18    20   ar
    21    19    21   ar
    22    19    22    1
    23    20    23   ar
    24    20    24    1
    25    21    25   ar
    26    21    26    1
    27    23    25   ar
    28    23    27    1
    29    25    28    1
    30    28    29    2
    31    28    30    2
    32    31    32    1
    33    31    33    1
    34    31    34    1
@<TRIPOS>SUBSTRUCTURE
     1 1           1 GROUP             0 ****  ****    0  
@<TRIPOS>MOLECULE
Molecule Name_00001_00048
    34    34     1     0     0
SMALL
NO_CHARGES
****
Generated from the CSD

@<TRIPOS>ATOM
     1 C11      1.2299  -0.4687   0.5490   C.3       1 1      0.0000
     2 C12      1.9390   0.7902   0.0593   C.3       1 1      0.0000
     3 H12A     1.9670   1.5254   0.8726   H         1 1      0.0000
     4 C13      3.3366   0.5255  -0.4130   C.2       1 1      0.0000
     5 C14      4.2665  -0.1773   0.5287   C.3       1 1      0.0000
     6 H14B     4.1273   0.2258   1.5394   H         1 1      0.0000
     7 H14A     5.3023   0.0244   0.2288   H         1 1      0.0000
     8 N        3.7464   0.9194  -1.6018   N.pl3     1 1      0.0000
     9 HN       4.7160   0.7126  -1.8413   H         1 1      0.0000
    10 C        2.9235   1.4973  -2.6542   C.3       1 1      0.0000
    11 HC       3.4607   1.5084  -3.6003   H         1 1      0.0000
    12 HB       2.0096   0.9235  -2.7917   H         1 1      0.0000
    13 HA       2.6477   2.5210  -2.4097   H         1 1      0.0000
    14 H12B     1.3616   1.2275  -0.7646   H         1 1      0.0000
    15 O1       1.5929  -0.6910   1.9091   O.3       1 1      0.0000
    16 H11      1.5662  -1.3257  -0.0548   H         1 1      0.0000
    17 OH1      1.1547  -1.5153   2.2357   H         1 1      0.0000
    18 C10     -0.2717  -0.3288   0.4064   C.ar      1 1      0.0000
    19 C9      -1.0059  -1.2643  -0.3093   C.ar      1 1      0.0000
    20 C5      -0.9434   0.7347   0.9932   C.ar      1 1      0.0000
    21 C8      -2.3781  -1.1484  -0.4434   C.ar      1 1      0.0000
    22 H9      -0.4945  -2.1018  -0.7720   H         1 1      0.0000
    23 C6      -2.3149   0.8709   0.8723   C.ar      1 1      0.0000
    24 H5      -0.3826   1.4728   1.5571   H         1 1      0.0000
    25 C7      -3.0083  -0.0779   0.1527   C.ar      1 1      0.0000
    26 H8      -2.9449  -1.8836  -1.0051   H         1 1      0.0000
    27 H6      -2.8326   1.7054   1.3335   H         1 1      0.0000
    28 NO      -4.4643   0.0561   0.0171   N.pl3     1 1      0.0000
    29 ON2     -5.0094   1.0106   0.5512   O.2       1 1      0.0000
    30 ON1     -5.0658  -0.7929  -0.6239   O.2       1 1      0.0000
    31 C15      4.0370  -1.6808   0.5540   C.3       1 1      0.0000
    32 H15A     3.4037  -1.9883  -0.2755   H         1 1      0.0000
    33 H15C     4.9809  -2.2164   0.4765   H         1 1      0.0000
    34 H15B     3.5519  -1.9814   1.4804   H         1 1      0.0000
@<TRIPOS>BOND
     1     1     2    1
     2     1    15    1
     3     1    16    1
     4     1    18    1
     5     2     3    1
     6     2     4    1
     7     2    14    1
     8     4     5    1
     9     4     8    2
    10     5     6    1
    11     5     7    1
    12     5    31    1
    13     8     9    1
    14     8    10    1
    15    10    11    1
    16    10    12    1
    17    10    13    1
    18    15    17    1
    19    18    19   ar
    20    18    20   ar
    21    19    21   ar
    22    19    22    1
    23    20    23   ar
    24    20    24    1
    25    21    25   ar
    26    21    26    1
    27    23    25   ar
    28    23    27    1
    29    25    28    1
    30    28    29    2
    31    28    30    2
    32    31    32    1
    33    31    33    1
    34    31    34    1
@<TRIPOS>SUBSTRUCTURE
     1 1           1 GROUP             0 ****  ****    0  
@<TRIPOS>MOLECULE
Molecule Name_00001_00049
    34    34     1     0     0
SMALL
NO_CHARGES
****
Generated from the CSD

@<TRIPOS>ATOM
     1 C11      1.1430   0.3956   0.7504   C.3       1 1      0.0000
     2 C12      1.8989   0.2470  -0.5664   C.3       1 1      0.0000
     3 H12A     1.8831   1.2055  -1.0992   H         1 1      0.0000
     4 C13      3.3209  -0.1869  -0.3764   C.2       1 1      0.0000
     5 C14      3.6704  -1.5985  -0.7380   C.3       1 1      0.0000
     6 H14B     2.9208  -2.2756  -0.3102   H         1 1      0.0000
     7 H14A     4.6414  -1.8533  -0.2955   H         1 1      0.0000
     8 N        4.2288   0.6309   0.1167   N.pl3     1 1      0.0000
     9 HN       5.1699   0.2537   0.2273   H         1 1      0.0000
    10 C        4.0581   2.0498   0.3930   C.3       1 1      0.0000
    11 HC       4.9907   2.5874   0.2351   H         1 1      0.0000
    12 HB       3.3035   2.4842  -0.2592   H         1 1      0.0000
    13 HA       3.7470   2.2072   1.4236   H         1 1      0.0000
    14 H12B     1.3824  -0.4904  -1.1932   H         1 1      0.0000
    15 O1       1.3951   1.6981   1.2710   O.3       1 1      0.0000
    16 H11      1.5192  -0.3532   1.4645   H         1 1      0.0000
    17 OH1      0.9257   1.8031   2.1351   H         1 1      0.0000
    18 C10     -0.3414   0.1736   0.5451   C.ar      1 1      0.0000
    19 C9      -1.0241  -0.7821   1.2847   C.ar      1 1      0.0000
    20 C5      -1.0489   0.9255  -0.3826   C.ar      1 1      0.0000
    21 C8      -2.3803  -0.9912   1.1081   C.ar      1 1      0.0000
    22 H9      -0.4843  -1.3761   2.0148   H         1 1      0.0000
    23 C6      -2.4054   0.7337  -0.5762   C.ar      1 1      0.0000
    24 H5      -0.5287   1.6774  -0.9667   H         1 1      0.0000
    25 C7      -3.0471  -0.2257   0.1765   C.ar      1 1      0.0000
    26 H8      -2.9067  -1.7408   1.6897   H         1 1      0.0000
    27 H6      -2.9512   1.3250  -1.3039   H         1 1      0.0000
    28 NO      -4.4866  -0.4387  -0.0203   N.pl3     1 1      0.0000
    29 ON2     -5.0646   0.2477  -0.8499   O.2       1 1      0.0000
    30 ON1     -5.0422  -1.2929   0.6544   O.2       1 1      0.0000
    31 C15      3.7355  -1.8112  -2.2428   C.3       1 1      0.0000
    32 H15A     4.4883  -1.1663  -2.6913   H         1 1      0.0000
    33 H15C     3.9907  -2.8429  -2.4758   H         1 1      0.0000
    34 H15B     2.7770  -1.5863  -2.7059   H         1 1      0.0000
@<TRIPOS>BOND
     1     1     2    1
     2     1    15    1
     3     1    16    1
     4     1    18    1
     5     2     3    1
     6     2     4    1
     7     2    14    1
     8     4     5    1
     9     4     8    2
    10     5     6    1
    11     5     7    1
    12     5    31    1
    13     8     9    1
    14     8    10    1
    15    10    11    1
    16    10    12    1
    17    10    13    1
    18    15    17    1
    19    18    19   ar
    20    18    20   ar
    21    19    21   ar
    22    19    22    1
    23    20    23   ar
    24    20    24    1
    25    21    25   ar
    26    21    26    1
    27    23    25   ar
    28    23    27    1
    29    25    28    1
    30    28    29    2
    31    28    30    2
    32    31    32    1
    33    31    33    1
    34    31    34    1
@<TRIPOS>SUBSTRUCTURE
     1 1           1 GROUP             0 ****  ****    0  
@<TRIPOS>MOLECULE
Molecule Name_00001_00050
    34    34     1     0     0
SMALL
NO_CHARGES
****
Generated from the CSD

@<TRIPOS>ATOM
     1 C11      1.2125   0.3498   0.5984   C.3       1 1      0.0000
     2 C12      1.8761   0.4843  -0.7687   C.3       1 1      0.0000
     3 H12A     1.8133   1.5290  -1.0966   H         1 1      0.0000
     4 C13      3.3122   0.0555  -0.7643   C.2       1 1      0.0000
     5 C14      3.6501  -1.2471  -1.4234   C.3       1 1      0.0000
     6 H14B     4.7379  -1.3167  -1.5462   H         1 1      0.0000
     7 H14A     3.1991  -1.2720  -2.4231   H         1 1      0.0000
     8 N        4.2440   0.7803  -0.1789   N.pl3     1 1      0.0000
     9 HN       5.1943   0.4113  -0.2087   H         1 1      0.0000
    10 C        4.0785   2.1114   0.3865   C.3       1 1      0.0000
    11 HC       4.9926   2.6915   0.2790   H         1 1      0.0000
    12 HB       3.2766   2.6491  -0.1147   H         1 1      0.0000
    13 HA       3.8373   2.0531   1.4459   H         1 1      0.0000
    14 H12B     1.3246  -0.1258  -1.4947   H         1 1      0.0000
    15 O1       1.4870   1.5284   1.3512   O.3       1 1      0.0000
    16 H11      1.6454  -0.5168   1.1217   H         1 1      0.0000
    17 OH1      1.0781   1.4481   2.2481   H         1 1      0.0000
    18 C10     -0.2802   0.1375   0.4519   C.ar      1 1      0.0000
    19 C9      -0.8997  -0.9624   1.0290   C.ar      1 1      0.0000
    20 C5      -1.0585   1.0416  -0.2575   C.ar      1 1      0.0000
    21 C8      -2.2627  -1.1647   0.9045   C.ar      1 1      0.0000
    22 H9      -0.3041  -1.6766   1.5880   H         1 1      0.0000
    23 C6      -2.4231   0.8596  -0.3951   C.ar      1 1      0.0000
    24 H5      -0.5881   1.9070  -0.7126   H         1 1      0.0000
    25 C7      -3.0008  -0.2454   0.1913   C.ar      1 1      0.0000
    26 H8      -2.7394  -2.0275   1.3581   H         1 1      0.0000
    27 H6      -3.0245   1.5706  -0.9519   H         1 1      0.0000
    28 NO      -4.4483  -0.4496   0.0519   N.pl3     1 1      0.0000
    29 ON2     -5.0899   0.3740  -0.5833   O.2       1 1      0.0000
    30 ON1     -4.9466  -1.4340   0.5774   O.2       1 1      0.0000
    31 C15      3.1596  -2.4447  -0.6238   C.3       1 1      0.0000
    32 H15A     2.0786  -2.4126  -0.5052   H         1 1      0.0000
    33 H15C     3.4182  -3.3751  -1.1249   H         1 1      0.0000
    34 H15B     3.6090  -2.4571   0.3670   H         1 1      0.0000
@<TRIPOS>BOND
     1     1     2    1
     2     1    15    1
     3     1    16    1
     4     1    18    1
     5     2     3    1
     6     2     4    1
     7     2    14    1
     8     4     5    1
     9     4     8    2
    10     5     6    1
    11     5     7    1
    12     5    31    1
    13     8     9    1
    14     8    10    1
    15    10    11    1
    16    10    12    1
    17    10    13    1
    18    15    17    1
    19    18    19   ar
    20    18    20   ar
    21    19    21   ar
    22    19    22    1
    23    20    23   ar
    24    20    24    1
    25    21    25   ar
    26    21    26    1
    27    23    25   ar
    28    23    27    1
    29    25    28    1
    30    28    29    2
    31    28    30    2
    32    31    32    1
    33    31    33    1
    34    31    34    1
@<TRIPOS>SUBSTRUCTURE
     1 1           1 GROUP             0 ****  ****    0  
@<TRIPOS>MOLECULE
Molecule Name_00001_00051
    34    34     1     0     0
SMALL
NO_CHARGES
****
Generated from the CSD

@<TRIPOS>ATOM
     1 C11      1.2785   0.7240   1.1811   C.3       1 1      0.0000
     2 C12      2.0875   1.0801  -0.0623   C.3       1 1      0.0000
     3 H12A     2.6895   1.9731   0.1451   H         1 1      0.0000
     4 C13      2.9908  -0.0298  -0.5077   C.2       1 1      0.0000
     5 C14      2.4081  -1.4078  -0.5925   C.3       1 1      0.0000
     6 H14B     1.9074  -1.6455   0.3542   H         1 1      0.0000
     7 H14A     3.2190  -2.1332  -0.7325   H         1 1      0.0000
     8 N        4.2596   0.1877  -0.7889   N.pl3     1 1      0.0000
     9 HN       4.8094  -0.6235  -1.0713   H         1 1      0.0000
    10 C        4.9201   1.4826  -0.8664   C.3       1 1      0.0000
    11 HC       5.7462   1.4513  -1.5737   H         1 1      0.0000
    12 HB       4.2256   2.2538  -1.1923   H         1 1      0.0000
    13 HA       5.3168   1.7717   0.1046   H         1 1      0.0000
    14 H12B     1.3973   1.3267  -0.8786   H         1 1      0.0000
    15 O1       1.2866   1.8449   2.0612   O.3       1 1      0.0000
    16 H11      1.7569  -0.1295   1.6859   H         1 1      0.0000
    17 OH1      0.7807   1.6225   2.8814   H         1 1      0.0000
    18 C10     -0.1386   0.3401   0.8078   C.ar      1 1      0.0000
    19 C9      -0.5237  -0.9926   0.7639   C.ar      1 1      0.0000
    20 C5      -1.0810   1.3139   0.5078   C.ar      1 1      0.0000
    21 C8      -1.8160  -1.3547   0.4274   C.ar      1 1      0.0000
    22 H9       0.2019  -1.7646   0.9976   H         1 1      0.0000
    23 C6      -2.3789   0.9753   0.1688   C.ar      1 1      0.0000
    24 H5      -0.7946   2.3600   0.5398   H         1 1      0.0000
    25 C7      -2.7221  -0.3588   0.1350   C.ar      1 1      0.0000
    26 H8      -2.1090  -2.3989   0.3946   H         1 1      0.0000
    27 H6      -3.1097   1.7424  -0.0651   H         1 1      0.0000
    28 NO      -4.0966  -0.7307  -0.2239   N.pl3     1 1      0.0000
    29 ON2     -4.8892   0.1633  -0.4808   O.2       1 1      0.0000
    30 ON1     -4.3864  -1.9177  -0.2497   O.2       1 1      0.0000
    31 C15      1.4115  -1.5454  -1.7335   C.3       1 1      0.0000
    32 H15A     1.8878  -1.3360  -2.6890   H         1 1      0.0000
    33 H15C     1.0052  -2.5540  -1.7711   H         1 1      0.0000
    34 H15B     0.5834  -0.8509  -1.6081   H         1 1      0.0000
@<TRIPOS>BOND
     1     1     2    1
     2     1    15    1
     3     1    16    1
     4     1    18    1
     5     2     3    1
     6     2     4    1
     7     2    14    1
     8     4     5    1
     9     4     8    2
    10     5     6    1
    11     5     7    1
    12     5    31    1
    13     8     9    1
    14     8    10    1
    15    10    11    1
    16    10    12    1
    17    10    13    1
    18    15    17    1
    19    18    19   ar
    20    18    20   ar
    21    19    21   ar
    22    19    22    1
    23    20    23   ar
    24    20    24    1
    25    21    25   ar
    26    21    26    1
    27    23    25   ar
    28    23    27    1
    29    25    28    1
    30    28    29    2
    31    28    30    2
    32    31    32    1
    33    31    33    1
    34    31    34    1
@<TRIPOS>SUBSTRUCTURE
     1 1           1 GROUP             0 ****  ****    0  
@<TRIPOS>MOLECULE
Molecule Name_00001_00052
    34    34     1     0     0
SMALL
NO_CHARGES
****
Generated from the CSD

@<TRIPOS>ATOM
     1 C11      1.3050   1.2976   0.5889   C.3       1 1      0.0000
     2 C12      2.1189   1.0772  -0.6825   C.3       1 1      0.0000
     3 H12A     2.7925   1.9302  -0.8295   H         1 1      0.0000
     4 C13      2.9250  -0.1859  -0.6469   C.2       1 1      0.0000
     5 C14      2.5614  -1.2693  -1.6161   C.3       1 1      0.0000
     6 H14B     3.3659  -2.0147  -1.6409   H         1 1      0.0000
     7 H14A     2.4745  -0.8385  -2.6212   H         1 1      0.0000
     8 N        3.9013  -0.3538   0.2220   N.pl3     1 1      0.0000
     9 HN       4.3916  -1.2474   0.1896   H         1 1      0.0000
    10 C        4.4360   0.6512   1.1292   C.3       1 1      0.0000
    11 HC       5.4861   0.4597   1.3397   H         1 1      0.0000
    12 HB       4.3544   1.6464   0.6977   H         1 1      0.0000
    13 HA       3.8951   0.6454   2.0732   H         1 1      0.0000
    14 H12B     1.4370   1.0402  -1.5410   H         1 1      0.0000
    15 O1       1.2412   2.6977   0.8468   O.3       1 1      0.0000
    16 H11      1.8151   0.8026   1.4297   H         1 1      0.0000
    17 OH1      0.7314   2.8556   1.6795   H         1 1      0.0000
    18 C10     -0.0841   0.7106   0.4454   C.ar      1 1      0.0000
    19 C9      -0.3731  -0.5549   0.9367   C.ar      1 1      0.0000
    20 C5      -1.0966   1.4291  -0.1753   C.ar      1 1      0.0000
    21 C8      -1.6390  -1.0997   0.8142   C.ar      1 1      0.0000
    22 H9       0.4081  -1.1275   1.4258   H         1 1      0.0000
    23 C6      -2.3698   0.9045  -0.3091   C.ar      1 1      0.0000
    24 H5      -0.8857   2.4204  -0.5627   H         1 1      0.0000
    25 C7      -2.6167  -0.3557   0.1906   C.ar      1 1      0.0000
    26 H8      -1.8567  -2.0901   1.2004   H         1 1      0.0000
    27 H6      -3.1557   1.4722  -0.7961   H         1 1      0.0000
    28 NO      -3.9641  -0.9234   0.0542   N.pl3     1 1      0.0000
    29 ON2     -4.8210  -0.2520  -0.5011   O.2       1 1      0.0000
    30 ON1     -4.1683  -2.0420   0.5022   O.2       1 1      0.0000
    31 C15      1.2541  -1.9566  -1.2520   C.3       1 1      0.0000
    32 H15A     0.4075  -1.2998  -1.4406   H         1 1      0.0000
    33 H15C     1.1179  -2.8623  -1.8393   H         1 1      0.0000
    34 H15B     1.2426  -2.2305  -0.1991   H         1 1      0.0000
@<TRIPOS>BOND
     1     1     2    1
     2     1    15    1
     3     1    16    1
     4     1    18    1
     5     2     3    1
     6     2     4    1
     7     2    14    1
     8     4     5    1
     9     4     8    2
    10     5     6    1
    11     5     7    1
    12     5    31    1
    13     8     9    1
    14     8    10    1
    15    10    11    1
    16    10    12    1
    17    10    13    1
    18    15    17    1
    19    18    19   ar
    20    18    20   ar
    21    19    21   ar
    22    19    22    1
    23    20    23   ar
    24    20    24    1
    25    21    25   ar
    26    21    26    1
    27    23    25   ar
    28    23    27    1
    29    25    28    1
    30    28    29    2
    31    28    30    2
    32    31    32    1
    33    31    33    1
    34    31    34    1
@<TRIPOS>SUBSTRUCTURE
     1 1           1 GROUP             0 ****  ****    0  
@<TRIPOS>MOLECULE
Molecule Name_00001_00053
    34    34     1     0     0
SMALL
NO_CHARGES
****
Generated from the CSD

@<TRIPOS>ATOM
     1 C11      1.2989   0.8945   1.0567   C.3       1 1      0.0000
     2 C12      2.0472   1.3010  -0.2091   C.3       1 1      0.0000
     3 H12A     2.7477   2.1097   0.0325   H         1 1      0.0000
     4 C13      2.8024   0.1651  -0.8300   C.2       1 1      0.0000
     5 C14      2.0338  -0.7930  -1.6884   C.3       1 1      0.0000
     6 H14B     2.6196  -1.0198  -2.5878   H         1 1      0.0000
     7 H14A     1.0991  -0.3174  -2.0101   H         1 1      0.0000
     8 N        4.0903  -0.0058  -0.6098   N.pl3     1 1      0.0000
     9 HN       4.5265  -0.8111  -1.0585   H         1 1      0.0000
    10 C        4.9772   0.9076   0.0959   C.3       1 1      0.0000
    11 HC       6.0131   0.5891  -0.0002   H         1 1      0.0000
    12 HB       4.8954   1.9155  -0.3051   H         1 1      0.0000
    13 HA       4.7309   0.9429   1.1551   H         1 1      0.0000
    14 H12B     1.3277   1.6915  -0.9393   H         1 1      0.0000
    15 O1       1.2802   2.0072   1.9469   O.3       1 1      0.0000
    16 H11      1.8360   0.0621   1.5371   H         1 1      0.0000
    17 OH1      0.8136   1.7529   2.7811   H         1 1      0.0000
    18 C10     -0.1088   0.4428   0.7263   C.ar      1 1      0.0000
    19 C9      -0.5576  -0.8141   1.1074   C.ar      1 1      0.0000
    20 C5      -0.9791   1.2792   0.0411   C.ar      1 1      0.0000
    21 C8      -1.8422  -1.2360   0.8140   C.ar      1 1      0.0000
    22 H9       0.1111  -1.4780   1.6452   H         1 1      0.0000
    23 C6      -2.2679   0.8785  -0.2632   C.ar      1 1      0.0000
    24 H5      -0.6424   2.2652  -0.2616   H         1 1      0.0000
    25 C7      -2.6757  -0.3772   0.1310   C.ar      1 1      0.0000
    26 H8      -2.1854  -2.2204   1.1147   H         1 1      0.0000
    27 H6      -2.9420   1.5380  -0.7998   H         1 1      0.0000
    28 NO      -4.0413  -0.8139  -0.1865   N.pl3     1 1      0.0000
    29 ON2     -4.7691  -0.0416  -0.7926   O.2       1 1      0.0000
    30 ON1     -4.3889  -1.9301   0.1695   O.2       1 1      0.0000
    31 C15      1.7108  -2.0898  -0.9619   C.3       1 1      0.0000
    32 H15A     1.6064  -1.9173   0.1073   H         1 1      0.0000
    33 H15C     0.7793  -2.5158  -1.3289   H         1 1      0.0000
    34 H15B     2.5008  -2.8228  -1.1114   H         1 1      0.0000
@<TRIPOS>BOND
     1     1     2    1
     2     1    15    1
     3     1    16    1
     4     1    18    1
     5     2     3    1
     6     2     4    1
     7     2    14    1
     8     4     5    1
     9     4     8    2
    10     5     6    1
    11     5     7    1
    12     5    31    1
    13     8     9    1
    14     8    10    1
    15    10    11    1
    16    10    12    1
    17    10    13    1
    18    15    17    1
    19    18    19   ar
    20    18    20   ar
    21    19    21   ar
    22    19    22    1
    23    20    23   ar
    24    20    24    1
    25    21    25   ar
    26    21    26    1
    27    23    25   ar
    28    23    27    1
    29    25    28    1
    30    28    29    2
    31    28    30    2
    32    31    32    1
    33    31    33    1
    34    31    34    1
@<TRIPOS>SUBSTRUCTURE
     1 1           1 GROUP             0 ****  ****    0  
@<TRIPOS>MOLECULE
Molecule Name_00001_00054
    34    34     1     0     0
SMALL
NO_CHARGES
****
Generated from the CSD

@<TRIPOS>ATOM
     1 C11      1.4716  -0.1346   1.3955   C.3       1 1      0.0000
     2 C12      2.3185   0.8488   0.5936   C.3       1 1      0.0000
     3 H12A     3.1335   1.2197   1.2270   H         1 1      0.0000
     4 C13      2.8976   0.2417  -0.6483   C.2       1 1      0.0000
     5 C14      3.7252  -0.9980  -0.4944   C.3       1 1      0.0000
     6 H14B     4.3303  -0.9157   0.4169   H         1 1      0.0000
     7 H14A     4.4128  -1.0794  -1.3453   H         1 1      0.0000
     8 N        2.7121   0.7899  -1.8321   N.pl3     1 1      0.0000
     9 HN       3.1514   0.3222  -2.6248   H         1 1      0.0000
    10 C        1.8385   1.9130  -2.1395   C.3       1 1      0.0000
    11 HC       2.0226   2.2790  -3.1474   H         1 1      0.0000
    12 HB       0.7928   1.6211  -2.0721   H         1 1      0.0000
    13 HA       2.0070   2.7337  -1.4454   H         1 1      0.0000
    14 H12B     1.6976   1.7087   0.3134   H         1 1      0.0000
    15 O1       1.5534   0.2187   2.7738   O.3       1 1      0.0000
    16 H11      1.8796  -1.1485   1.2622   H         1 1      0.0000
    17 OH1      1.0233  -0.4220   3.3093   H         1 1      0.0000
    18 C10      0.0341  -0.1188   0.9179   C.ar      1 1      0.0000
    19 C9      -0.5846  -1.2865   0.4933   C.ar      1 1      0.0000
    20 C5      -0.6942   1.0626   0.9007   C.ar      1 1      0.0000
    21 C8      -1.8979  -1.2846   0.0581   C.ar      1 1      0.0000
    22 H9      -0.0281  -2.2179   0.5029   H         1 1      0.0000
    23 C6      -2.0086   1.0884   0.4697   C.ar      1 1      0.0000
    24 H5      -0.2240   1.9828   1.2314   H         1 1      0.0000
    25 C7      -2.5870  -0.0914   0.0547   C.ar      1 1      0.0000
    26 H8      -2.3742  -2.2016  -0.2729   H         1 1      0.0000
    27 H6      -2.5710   2.0162   0.4586   H         1 1      0.0000
    28 NO      -3.9814  -0.0767  -0.4054   N.pl3     1 1      0.0000
    29 ON2     -4.5799   0.9888  -0.4028   O.2       1 1      0.0000
    30 ON1     -4.4811  -1.1306  -0.7703   O.2       1 1      0.0000
    31 C15      2.8738  -2.2562  -0.4174   C.3       1 1      0.0000
    32 H15A     1.8179  -2.0141  -0.5176   H         1 1      0.0000
    33 H15C     3.1393  -2.9507  -1.2117   H         1 1      0.0000
    34 H15B     3.0169  -2.7609   0.5358   H         1 1      0.0000
@<TRIPOS>BOND
     1     1     2    1
     2     1    15    1
     3     1    16    1
     4     1    18    1
     5     2     3    1
     6     2     4    1
     7     2    14    1
     8     4     5    1
     9     4     8    2
    10     5     6    1
    11     5     7    1
    12     5    31    1
    13     8     9    1
    14     8    10    1
    15    10    11    1
    16    10    12    1
    17    10    13    1
    18    15    17    1
    19    18    19   ar
    20    18    20   ar
    21    19    21   ar
    22    19    22    1
    23    20    23   ar
    24    20    24    1
    25    21    25   ar
    26    21    26    1
    27    23    25   ar
    28    23    27    1
    29    25    28    1
    30    28    29    2
    31    28    30    2
    32    31    32    1
    33    31    33    1
    34    31    34    1
@<TRIPOS>SUBSTRUCTURE
     1 1           1 GROUP             0 ****  ****    0  
@<TRIPOS>MOLECULE
Molecule Name_00001_00055
    34    34     1     0     0
SMALL
NO_CHARGES
****
Generated from the CSD

@<TRIPOS>ATOM
     1 C11      1.1312   1.5210  -0.0460   C.3       1 1      0.0000
     2 C12      2.0864   0.6615  -0.8684   C.3       1 1      0.0000
     3 H12A     2.7636   1.3158  -1.4308   H         1 1      0.0000
     4 C13      2.8960  -0.2783  -0.0273   C.2       1 1      0.0000
     5 C14      2.2505  -1.5625   0.3965   C.3       1 1      0.0000
     6 H14B     1.2528  -1.3480   0.7990   H         1 1      0.0000
     7 H14A     2.8442  -2.0155   1.2001   H         1 1      0.0000
     8 N        4.1218   0.0214   0.3522   N.pl3     1 1      0.0000
     9 HN       4.5995  -0.6661   0.9347   H         1 1      0.0000
    10 C        4.9079   1.1665  -0.0833   C.3       1 1      0.0000
    11 HC       5.9538   1.0410   0.1889   H         1 1      0.0000
    12 HB       4.8523   1.2876  -1.1629   H         1 1      0.0000
    13 HA       4.5452   2.0817   0.3799   H         1 1      0.0000
    14 H12B     1.5067   0.0793  -1.5953   H         1 1      0.0000
    15 O1       1.0212   2.7974  -0.6704   O.3       1 1      0.0000
    16 H11      1.5492   1.6526   0.9640   H         1 1      0.0000
    17 OH1      0.4186   3.3729  -0.1378   H         1 1      0.0000
    18 C10     -0.2253   0.8566   0.0685   C.ar      1 1      0.0000
    19 C9      -1.2456   1.4496   0.7991   C.ar      1 1      0.0000
    20 C5      -0.4763  -0.3554  -0.5597   C.ar      1 1      0.0000
    21 C8      -2.4895   0.8536   0.9078   C.ar      1 1      0.0000
    22 H9      -1.0644   2.3980   1.2941   H         1 1      0.0000
    23 C6      -1.7123  -0.9698  -0.4647   C.ar      1 1      0.0000
    24 H5       0.3114  -0.8298  -1.1357   H         1 1      0.0000
    25 C7      -2.6990  -0.3501   0.2709   C.ar      1 1      0.0000
    26 H8      -3.2817   1.3233   1.4814   H         1 1      0.0000
    27 H6      -1.9003  -1.9176  -0.9581   H         1 1      0.0000
    28 NO      -4.0149  -0.9926   0.3793   N.pl3     1 1      0.0000
    29 ON2     -4.1860  -2.0599  -0.1909   O.2       1 1      0.0000
    30 ON1     -4.8802  -0.4314   1.0349   O.2       1 1      0.0000
    31 C15      2.1244  -2.5530  -0.7511   C.3       1 1      0.0000
    32 H15A     3.0809  -3.0290  -0.9567   H         1 1      0.0000
    33 H15C     1.4031  -3.3314  -0.5112   H         1 1      0.0000
    34 H15B     1.7932  -2.0520  -1.6583   H         1 1      0.0000
@<TRIPOS>BOND
     1     1     2    1
     2     1    15    1
     3     1    16    1
     4     1    18    1
     5     2     3    1
     6     2     4    1
     7     2    14    1
     8     4     5    1
     9     4     8    2
    10     5     6    1
    11     5     7    1
    12     5    31    1
    13     8     9    1
    14     8    10    1
    15    10    11    1
    16    10    12    1
    17    10    13    1
    18    15    17    1
    19    18    19   ar
    20    18    20   ar
    21    19    21   ar
    22    19    22    1
    23    20    23   ar
    24    20    24    1
    25    21    25   ar
    26    21    26    1
    27    23    25   ar
    28    23    27    1
    29    25    28    1
    30    28    29    2
    31    28    30    2
    32    31    32    1
    33    31    33    1
    34    31    34    1
@<TRIPOS>SUBSTRUCTURE
     1 1           1 GROUP             0 ****  ****    0  
@<TRIPOS>MOLECULE
Molecule Name_00001_00056
    34    34     1     0     0
SMALL
NO_CHARGES
****
Generated from the CSD

@<TRIPOS>ATOM
     1 C11      1.1957  -0.6990  -0.1249   C.3       1 1      0.0000
     2 C12      1.9751   0.3934   0.6008   C.3       1 1      0.0000
     3 H12A     2.0506   0.1342   1.6638   H         1 1      0.0000
     4 C13      3.3521   0.5946   0.0443   C.2       1 1      0.0000
     5 C14      4.4418  -0.3033   0.5460   C.3       1 1      0.0000
     6 H14B     4.3655  -0.3868   1.6371   H         1 1      0.0000
     7 H14A     5.4147   0.1469   0.3130   H         1 1      0.0000
     8 N        3.6066   1.5437  -0.8336   N.pl3     1 1      0.0000
     9 HN       4.5723   1.6229  -1.1521   H         1 1      0.0000
    10 C        2.6302   2.3991  -1.4922   C.3       1 1      0.0000
    11 HC       2.9846   2.7012  -2.4755   H         1 1      0.0000
    12 HB       1.6828   1.8800  -1.6198   H         1 1      0.0000
    13 HA       2.4484   3.2981  -0.9071   H         1 1      0.0000
    14 H12B     1.4200   1.3368   0.5272   H         1 1      0.0000
    15 O1       1.5463  -1.9576   0.4444   O.3       1 1      0.0000
    16 H11      1.4823  -0.6959  -1.1879   H         1 1      0.0000
    17 OH1      1.4414  -2.6670  -0.2366   H         1 1      0.0000
    18 C10     -0.2956  -0.4547  -0.0194   C.ar      1 1      0.0000
    19 C9      -1.1692  -1.5027   0.2357   C.ar      1 1      0.0000
    20 C5      -0.8170   0.8227  -0.1702   C.ar      1 1      0.0000
    21 C8      -2.5327  -1.2909   0.3373   C.ar      1 1      0.0000
    22 H9      -0.7756  -2.5064   0.3575   H         1 1      0.0000
    23 C6      -2.1769   1.0582  -0.0726   C.ar      1 1      0.0000
    24 H5      -0.1458   1.6519  -0.3682   H         1 1      0.0000
    25 C7      -3.0117  -0.0085   0.1802   C.ar      1 1      0.0000
    26 H8      -3.2091  -2.1155   0.5362   H         1 1      0.0000
    27 H6      -2.5768   2.0597  -0.1924   H         1 1      0.0000
    28 NO      -4.4570   0.2288   0.2855   N.pl3     1 1      0.0000
    29 ON2     -4.8672   1.3712   0.1439   O.2       1 1      0.0000
    30 ON1     -5.1850  -0.7268   0.5101   O.2       1 1      0.0000
    31 C15      4.3745  -1.6936  -0.0677   C.3       1 1      0.0000
    32 H15A     3.7899  -1.6822  -0.9853   H         1 1      0.0000
    33 H15C     5.3713  -2.0589  -0.3055   H         1 1      0.0000
    34 H15B     3.9109  -2.3970   0.6208   H         1 1      0.0000
@<TRIPOS>BOND
     1     1     2    1
     2     1    15    1
     3     1    16    1
     4     1    18    1
     5     2     3    1
     6     2     4    1
     7     2    14    1
     8     4     5    1
     9     4     8    2
    10     5     6    1
    11     5     7    1
    12     5    31    1
    13     8     9    1
    14     8    10    1
    15    10    11    1
    16    10    12    1
    17    10    13    1
    18    15    17    1
    19    18    19   ar
    20    18    20   ar
    21    19    21   ar
    22    19    22    1
    23    20    23   ar
    24    20    24    1
    25    21    25   ar
    26    21    26    1
    27    23    25   ar
    28    23    27    1
    29    25    28    1
    30    28    29    2
    31    28    30    2
    32    31    32    1
    33    31    33    1
    34    31    34    1
@<TRIPOS>SUBSTRUCTURE
     1 1           1 GROUP             0 ****  ****    0  
@<TRIPOS>MOLECULE
Molecule Name_00001_00057
    34    34     1     0     0
SMALL
NO_CHARGES
****
Generated from the CSD

@<TRIPOS>ATOM
     1 C11      1.1154  -0.0010  -0.6737   C.3       1 1      0.0000
     2 C12      1.9184   0.5387   0.5058   C.3       1 1      0.0000
     3 H12A     1.6558  -0.0276   1.4076   H         1 1      0.0000
     4 C13      3.3992   0.4585   0.2883   C.2       1 1      0.0000
     5 C14      4.1762  -0.4944   1.1448   C.3       1 1      0.0000
     6 H14B     3.8686  -0.3711   2.1905   H         1 1      0.0000
     7 H14A     5.2433  -0.2485   1.0797   H         1 1      0.0000
     8 N        4.0049   1.2166  -0.6031   N.pl3     1 1      0.0000
     9 HN       5.0164   1.1109  -0.6795   H         1 1      0.0000
    10 C        3.3646   2.0880  -1.5776   C.3       1 1      0.0000
    11 HC       4.0974   2.7353  -2.0549   H         1 1      0.0000
    12 HB       2.8716   1.5065  -2.3536   H         1 1      0.0000
    13 HA       2.6174   2.7179  -1.0994   H         1 1      0.0000
    14 H12B     1.6400   1.5858   0.6779   H         1 1      0.0000
    15 O1       1.5947  -1.3062  -0.9865   O.3       1 1      0.0000
    16 H11      1.2736   0.6553  -1.5434   H         1 1      0.0000
    17 OH1      1.4350  -1.4941  -1.9443   H         1 1      0.0000
    18 C10     -0.3634  -0.0323  -0.3468   C.ar      1 1      0.0000
    19 C9      -1.1756  -1.0473  -0.8334   C.ar      1 1      0.0000
    20 C5      -0.9341   0.9503   0.4502   C.ar      1 1      0.0000
    21 C8      -2.5268  -1.0878  -0.5387   C.ar      1 1      0.0000
    22 H9      -0.7429  -1.8231  -1.4563   H         1 1      0.0000
    23 C6      -2.2829   0.9301   0.7580   C.ar      1 1      0.0000
    24 H5      -0.3111   1.7490   0.8391   H         1 1      0.0000
    25 C7      -3.0561  -0.0934   0.2548   C.ar      1 1      0.0000
    26 H8      -3.1551  -1.8843  -0.9234   H         1 1      0.0000
    27 H6      -2.7216   1.7023   1.3812   H         1 1      0.0000
    28 NO      -4.4890  -0.1254   0.5742   N.pl3     1 1      0.0000
    29 ON2     -4.9443   0.7631   1.2790   O.2       1 1      0.0000
    30 ON1     -5.1622  -1.0392   0.1210   O.2       1 1      0.0000
    31 C15      3.9710  -1.9437   0.7309   C.3       1 1      0.0000
    32 H15A     3.8089  -2.0191  -0.3423   H         1 1      0.0000
    33 H15C     4.8418  -2.5444   0.9851   H         1 1      0.0000
    34 H15B     3.1063  -2.3701   1.2350   H         1 1      0.0000
@<TRIPOS>BOND
     1     1     2    1
     2     1    15    1
     3     1    16    1
     4     1    18    1
     5     2     3    1
     6     2     4    1
     7     2    14    1
     8     4     5    1
     9     4     8    2
    10     5     6    1
    11     5     7    1
    12     5    31    1
    13     8     9    1
    14     8    10    1
    15    10    11    1
    16    10    12    1
    17    10    13    1
    18    15    17    1
    19    18    19   ar
    20    18    20   ar
    21    19    21   ar
    22    19    22    1
    23    20    23   ar
    24    20    24    1
    25    21    25   ar
    26    21    26    1
    27    23    25   ar
    28    23    27    1
    29    25    28    1
    30    28    29    2
    31    28    30    2
    32    31    32    1
    33    31    33    1
    34    31    34    1
@<TRIPOS>SUBSTRUCTURE
     1 1           1 GROUP             0 ****  ****    0  
