@<TRIPOS>MOLECULE
Molecule Name_00001
    34    34     1     0     0
SMALL
NO_CHARGES
****
Generated from the CSD

@<TRIPOS>ATOM
     1 C11      0.9542  -0.1359   0.6737   C.3       1 1      0.0000
     2 C12      1.7236   0.0972  -0.6638   C.3       1 1      0.0000
     3 H12A     1.5035   1.1076  -1.0154   H         1 1      0.0000
     4 C13      3.1995  -0.1174  -0.4720   C.2       1 1      0.0000
     5 C14      3.7320  -1.5263  -0.5100   C.3       1 1      0.0000
     6 H14B     3.4250  -1.9625  -1.4729   H         1 1      0.0000
     7 H14A     3.1881  -2.0960   0.2583   H         1 1      0.0000
     8 N        4.0147   0.8787  -0.2792   N.pl3     1 1      0.0000
     9 HN       5.0062   0.6554  -0.1526   H         1 1      0.0000
    10 C        3.6598   2.3299  -0.1721   C.3       1 1      0.0000
    11 HC       4.5415   2.9063  -0.4556   H         1 1      0.0000
    12 HB       2.8381   2.5624  -0.8566   H         1 1      0.0000
    13 HA       3.3850   2.5394   0.8624   H         1 1      0.0000
    14 H12B     1.3472  -0.6171  -1.4040   H         1 1      0.0000
    15 O1       1.4197   0.9787   1.5317   O.3       1 1      0.0000
    16 H11      1.2611  -1.0920   1.1155   H         1 1      0.0000
    17 OH1      0.9640   0.9643   2.4150   H         1 1      0.0000
    18 C10     -0.5441  -0.1299   0.4474   C.ar      1 1      0.0000
    19 C9      -1.2359  -1.3438   0.3238   C.ar      1 1      0.0000
    20 C5      -1.2364   1.0871   0.3384   C.ar      1 1      0.0000
    21 C8      -2.6092  -1.3474   0.0736   C.ar      1 1      0.0000
    22 H9      -0.7110  -2.2894   0.4266   H         1 1      0.0000
    23 C6      -2.6091   1.0945   0.0987   C.ar      1 1      0.0000
    24 H5      -0.7090   2.0276   0.4608   H         1 1      0.0000
    25 C7      -3.2715  -0.1263  -0.0369   C.ar      1 1      0.0000
    26 H8      -3.1633  -2.2720  -0.0260   H         1 1      0.0000
    27 H6      -3.1650   2.0195   0.0160   H         1 1      0.0000
    28 NO      -4.7219  -0.1233  -0.3000   N.3       1 1      0.0000
    29 ON2     -5.3114   1.0149  -0.3980   O.2       1 1      0.0000
    30 ON1     -5.3115  -1.2603  -0.4141   O.2       1 1      0.0000
    31 C15      5.2497  -1.6892  -0.3121   C.3       1 1      0.0000
    32 H15A     5.5785  -1.3106   0.6631   H         1 1      0.0000
    33 H15C     5.5035  -2.7530  -0.3430   H         1 1      0.0000
    34 H15B     5.8235  -1.2062  -1.1128   H         1 1      0.0000
@<TRIPOS>BOND
     1     1     2    1
     2     1    15    1
     3     1    16    1
     4     1    18    1
     5     2     3    1
     6     2     4    1
     7     2    14    1
     8     4     5    1
     9     4     8    2
    10     5     6    1
    11     5     7    1
    12     5    31    1
    13     8     9    1
    14     8    10    1
    15    10    11    1
    16    10    12    1
    17    10    13    1
    18    15    17    1
    19    18    19   ar
    20    18    20   ar
    21    19    21   ar
    22    19    22    1
    23    20    23   ar
    24    20    24    1
    25    21    25   ar
    26    21    26    1
    27    23    25   ar
    28    23    27    1
    29    25    28    1
    30    28    29   un
    31    28    30   un
    32    31    32    1
    33    31    33    1
    34    31    34    1
@<TRIPOS>SUBSTRUCTURE
     1 1           1 GROUP             0 ****  ****    0  
