@<TRIPOS>MOLECULE
Molecule Name_00001_00001_00001
    34    34     1     0     0
SMALL
NO_CHARGES
****
Generated from the CSD

@<TRIPOS>ATOM
     1 C11      1.0604  -0.0984   0.6793   C.3       1 1      0.0000
     2 C12      1.8041   0.0982  -0.6381   C.3       1 1      0.0000
     3 H12A     1.6343   1.1208  -0.9966   H         1 1      0.0000
     4 C13      3.2785  -0.1420  -0.5166   C.2       1 1      0.0000
     5 C14      3.7558  -1.5620  -0.5547   C.3       1 1      0.0000
     6 H14B     3.4633  -2.0139  -1.5105   H         1 1      0.0000
     7 H14A     3.2644  -2.1282   0.2461   H         1 1      0.0000
     8 N        4.1254   0.8547  -0.3563   N.pl3     1 1      0.0000
     9 HN       5.1097   0.6059  -0.2588   H         1 1      0.0000
    10 C        3.8166   2.2748  -0.4373   C.3       1 1      0.0000
    11 HC       4.7081   2.8493  -0.6800   H         1 1      0.0000
    12 HB       3.0716   2.4667  -1.2065   H         1 1      0.0000
    13 HA       3.4268   2.6393   0.5108   H         1 1      0.0000
    14 H12B     1.3918  -0.5893  -1.3870   H         1 1      0.0000
    15 O1       1.4510   0.9373   1.5769   O.3       1 1      0.0000
    16 H11      1.3471  -1.0705   1.1094   H         1 1      0.0000
    17 OH1      0.9903   0.8125   2.4431   H         1 1      0.0000
    18 C10     -0.4380  -0.0844   0.4570   C.ar      1 1      0.0000
    19 C9      -1.1373  -1.2703   0.2774   C.ar      1 1      0.0000
    20 C5      -1.1384   1.1141   0.4348   C.ar      1 1      0.0000
    21 C8      -2.5046  -1.2645   0.0775   C.ar      1 1      0.0000
    22 H9      -0.6030  -2.2144   0.2942   H         1 1      0.0000
    23 C6      -2.5056   1.1334   0.2358   C.ar      1 1      0.0000
    24 H5      -0.6049   2.0483   0.5755   H         1 1      0.0000
    25 C7      -3.1894  -0.0592   0.0566   C.ar      1 1      0.0000
    26 H8      -3.0393  -2.1982  -0.0623   H         1 1      0.0000
    27 H6      -3.0412   2.0769   0.2198   H         1 1      0.0000
    28 NO      -4.5092  -0.0471  -0.1363   N.pl3     1 1      0.0000
    29 ON2     -5.0658   1.0010  -0.5504   O.2       1 1      0.0000
    30 ON1     -5.1798  -1.0841   0.0984   O.2       1 1      0.0000
    31 C15      5.2643  -1.6712  -0.3915   C.3       1 1      0.0000
    32 H15A     5.5808  -1.2494   0.5601   H         1 1      0.0000
    33 H15C     5.5814  -2.7115  -0.4234   H         1 1      0.0000
    34 H15B     5.7780  -1.1358  -1.1872   H         1 1      0.0000
@<TRIPOS>BOND
     1     1     2    1
     2     1    15    1
     3     1    16    1
     4     1    18    1
     5     2     3    1
     6     2     4    1
     7     2    14    1
     8     4     5    1
     9     4     8    2
    10     5     6    1
    11     5     7    1
    12     5    31    1
    13     8     9    1
    14     8    10    1
    15    10    11    1
    16    10    12    1
    17    10    13    1
    18    15    17    1
    19    18    19   ar
    20    18    20   ar
    21    19    21   ar
    22    19    22    1
    23    20    23   ar
    24    20    24    1
    25    21    25   ar
    26    21    26    1
    27    23    25   ar
    28    23    27    1
    29    25    28   un
    30    28    29   un
    31    28    30   un
    32    31    32    1
    33    31    33    1
    34    31    34    1
@<TRIPOS>SUBSTRUCTURE
     1 1           1 GROUP             0 ****  ****    0  
@<TRIPOS>MOLECULE
Molecule Name_00001_00001_00002
    34    34     1     0     0
SMALL
NO_CHARGES
****
Generated from the CSD

@<TRIPOS>ATOM
     1 C11      1.0240  -0.2783  -0.6914   C.3       1 1      0.0000
     2 C12      1.8565  -0.1022   0.5748   C.3       1 1      0.0000
     3 H12A     1.6803  -0.9552   1.2414   H         1 1      0.0000
     4 C13      3.3249   0.0091   0.2961   C.2       1 1      0.0000
     5 C14      4.0967  -1.2635   0.1217   C.3       1 1      0.0000
     6 H14B     3.6797  -1.8236  -0.7244   H         1 1      0.0000
     7 H14A     3.9797  -1.8813   1.0207   H         1 1      0.0000
     8 N        3.9244   1.1808   0.2314   N.pl3     1 1      0.0000
     9 HN       4.9298   1.1701   0.0605   H         1 1      0.0000
    10 C        3.2792   2.4855   0.2461   C.3       1 1      0.0000
    11 HC       3.8670   3.2117  -0.3113   H         1 1      0.0000
    12 HB       2.2903   2.4344  -0.2045   H         1 1      0.0000
    13 HA       3.1691   2.8497   1.2653   H         1 1      0.0000
    14 H12B     1.5237   0.8028   1.0979   H         1 1      0.0000
    15 O1       1.3127  -1.5586  -1.2468   O.3       1 1      0.0000
    16 H11      1.3098   0.4984  -1.4175   H         1 1      0.0000
    17 OH1      0.7934  -1.6803  -2.0797   H         1 1      0.0000
    18 C10     -0.4535  -0.1425  -0.3856   C.ar      1 1      0.0000
    19 C9      -1.0982   1.0774  -0.5395   C.ar      1 1      0.0000
    20 C5      -1.1892  -1.2370   0.0483   C.ar      1 1      0.0000
    21 C8      -2.4463   1.2071  -0.2653   C.ar      1 1      0.0000
    22 H9      -0.5358   1.9407  -0.8795   H         1 1      0.0000
    23 C6      -2.5379  -1.1204   0.3258   C.ar      1 1      0.0000
    24 H5      -0.6986  -2.1968   0.1713   H         1 1      0.0000
    25 C7      -3.1669   0.1050   0.1685   C.ar      1 1      0.0000
    26 H8      -2.9382   2.1662  -0.3889   H         1 1      0.0000
    27 H6      -3.1015  -1.9832   0.6649   H         1 1      0.0000
    28 NO      -4.4684   0.2240   0.4351   N.pl3     1 1      0.0000
    29 ON2     -5.0269  -0.6153   1.1857   O.2       1 1      0.0000
    30 ON1     -5.1201   1.1740  -0.0677   O.2       1 1      0.0000
    31 C15      5.5770  -1.0147  -0.1250   C.3       1 1      0.0000
    32 H15A     6.0225  -0.4787   0.7104   H         1 1      0.0000
    33 H15C     6.1108  -1.9548  -0.2479   H         1 1      0.0000
    34 H15B     5.7236  -0.4215  -1.0252   H         1 1      0.0000
@<TRIPOS>BOND
     1     1     2    1
     2     1    15    1
     3     1    16    1
     4     1    18    1
     5     2     3    1
     6     2     4    1
     7     2    14    1
     8     4     5    1
     9     4     8    2
    10     5     6    1
    11     5     7    1
    12     5    31    1
    13     8     9    1
    14     8    10    1
    15    10    11    1
    16    10    12    1
    17    10    13    1
    18    15    17    1
    19    18    19   ar
    20    18    20   ar
    21    19    21   ar
    22    19    22    1
    23    20    23   ar
    24    20    24    1
    25    21    25   ar
    26    21    26    1
    27    23    25   ar
    28    23    27    1
    29    25    28   un
    30    28    29   un
    31    28    30   un
    32    31    32    1
    33    31    33    1
    34    31    34    1
@<TRIPOS>SUBSTRUCTURE
     1 1           1 GROUP             0 ****  ****    0  
@<TRIPOS>MOLECULE
Molecule Name_00001_00001_00003
    34    34     1     0     0
SMALL
NO_CHARGES
****
Generated from the CSD

@<TRIPOS>ATOM
     1 C11      1.0609  -0.0985   0.6835   C.3       1 1      0.0000
     2 C12      1.8016   0.0979  -0.6356   C.3       1 1      0.0000
     3 H12A     1.6308   1.1203  -0.9940   H         1 1      0.0000
     4 C13      3.2763  -0.1420  -0.5174   C.2       1 1      0.0000
     5 C14      3.7538  -1.5619  -0.5561   C.3       1 1      0.0000
     6 H14B     3.4592  -2.0142  -1.5111   H         1 1      0.0000
     7 H14A     3.2644  -2.1280   0.2461   H         1 1      0.0000
     8 N        4.1234   0.8549  -0.3593   N.pl3     1 1      0.0000
     9 HN       5.1079   0.6063  -0.2640   H         1 1      0.0000
    10 C        3.8141   2.2749  -0.4401   C.3       1 1      0.0000
    11 HC       4.7050   2.8495  -0.6850   H         1 1      0.0000
    12 HB       3.0674   2.4664  -1.2077   H         1 1      0.0000
    13 HA       3.4264   2.6397   0.5088   H         1 1      0.0000
    14 H12B     1.3877  -0.5900  -1.3833   H         1 1      0.0000
    15 O1       1.4533   0.9376   1.5800   O.3       1 1      0.0000
    16 H11      1.3488  -1.0704   1.1134   H         1 1      0.0000
    17 OH1      0.9947   0.8130   2.4473   H         1 1      0.0000
    18 C10     -0.4380  -0.0848   0.4647   C.ar      1 1      0.0000
    19 C9      -1.1378   1.1139   0.4381   C.ar      1 1      0.0000
    20 C5      -1.1367  -1.2705   0.2816   C.ar      1 1      0.0000
    21 C8      -2.5046   1.1333   0.2358   C.ar      1 1      0.0000
    22 H9      -0.6043   2.0483   0.5782   H         1 1      0.0000
    23 C6      -2.5034  -1.2646   0.0783   C.ar      1 1      0.0000
    24 H5      -0.6022  -2.2146   0.2983   H         1 1      0.0000
    25 C7      -3.1881  -0.0593   0.0557   C.ar      1 1      0.0000
    26 H8      -3.0399   2.0769   0.2178   H         1 1      0.0000
    27 H6      -3.0379  -2.1982  -0.0629   H         1 1      0.0000
    28 NO      -4.5075  -0.0471  -0.1397   N.pl3     1 1      0.0000
    29 ON2     -5.1787  -1.0838   0.0941   O.2       1 1      0.0000
    30 ON1     -5.0632   1.0010  -0.5552   O.2       1 1      0.0000
    31 C15      5.2626  -1.6708  -0.3963   C.3       1 1      0.0000
    32 H15A     5.5813  -1.2486   0.5545   H         1 1      0.0000
    33 H15C     5.5798  -2.7110  -0.4285   H         1 1      0.0000
    34 H15B     5.7745  -1.1355  -1.1934   H         1 1      0.0000
@<TRIPOS>BOND
     1     1     2    1
     2     1    15    1
     3     1    16    1
     4     1    18    1
     5     2     3    1
     6     2     4    1
     7     2    14    1
     8     4     5    1
     9     4     8    2
    10     5     6    1
    11     5     7    1
    12     5    31    1
    13     8     9    1
    14     8    10    1
    15    10    11    1
    16    10    12    1
    17    10    13    1
    18    15    17    1
    19    18    19   ar
    20    18    20   ar
    21    19    21   ar
    22    19    22    1
    23    20    23   ar
    24    20    24    1
    25    21    25   ar
    26    21    26    1
    27    23    25   ar
    28    23    27    1
    29    25    28   un
    30    28    29   un
    31    28    30   un
    32    31    32    1
    33    31    33    1
    34    31    34    1
@<TRIPOS>SUBSTRUCTURE
     1 1           1 GROUP             0 ****  ****    0  
@<TRIPOS>MOLECULE
Molecule Name_00001_00001_00004
    34    34     1     0     0
SMALL
NO_CHARGES
****
Generated from the CSD

@<TRIPOS>ATOM
     1 C11      1.0242  -0.2791  -0.6956   C.3       1 1      0.0000
     2 C12      1.8538  -0.1030   0.5726   C.3       1 1      0.0000
     3 H12A     1.6764  -0.9564   1.2384   H         1 1      0.0000
     4 C13      3.3228   0.0091   0.2973   C.2       1 1      0.0000
     5 C14      4.0956  -1.2631   0.1242   C.3       1 1      0.0000
     6 H14B     3.6809  -1.8230  -0.7231   H         1 1      0.0000
     7 H14A     3.9768  -1.8812   1.0226   H         1 1      0.0000
     8 N        3.9219   1.1811   0.2344   N.pl3     1 1      0.0000
     9 HN       4.9277   1.1710   0.0658   H         1 1      0.0000
    10 C        3.2759   2.4855   0.2481   C.3       1 1      0.0000
    11 HC       3.8647   3.2122  -0.3076   H         1 1      0.0000
    12 HB       2.2881   2.4341  -0.2047   H         1 1      0.0000
    13 HA       3.1633   2.8493   1.2673   H         1 1      0.0000
    14 H12B     1.5193   0.8016   1.0953   H         1 1      0.0000
    15 O1       1.3149  -1.5590  -1.2508   O.3       1 1      0.0000
    16 H11      1.3114   0.4981  -1.4207   H         1 1      0.0000
    17 OH1      0.7975  -1.6806  -2.0849   H         1 1      0.0000
    18 C10     -0.4539  -0.1441  -0.3931   C.ar      1 1      0.0000
    19 C9      -1.1890  -1.2378   0.0441   C.ar      1 1      0.0000
    20 C5      -1.0977   1.0768  -0.5426   C.ar      1 1      0.0000
    21 C8      -2.5369  -1.1205   0.3247   C.ar      1 1      0.0000
    22 H9      -0.6983  -2.1977   0.1670   H         1 1      0.0000
    23 C6      -2.4451   1.2072  -0.2653   C.ar      1 1      0.0000
    24 H5      -0.5351   1.9404  -0.8819   H         1 1      0.0000
    25 C7      -3.1656   0.1053   0.1691   C.ar      1 1      0.0000
    26 H8      -3.1002  -1.9831   0.6650   H         1 1      0.0000
    27 H6      -2.9365   2.1669  -0.3869   H         1 1      0.0000
    28 NO      -4.4665   0.2248   0.4381   N.pl3     1 1      0.0000
    29 ON2     -5.1187   1.1753  -0.0630   O.2       1 1      0.0000
    30 ON1     -5.0241  -0.6147   1.1893   O.2       1 1      0.0000
    31 C15      5.5763  -1.0134  -0.1191   C.3       1 1      0.0000
    32 H15A     6.0196  -0.4775   0.7176   H         1 1      0.0000
    33 H15C     6.1109  -1.9532  -0.2411   H         1 1      0.0000
    34 H15B     5.7247  -0.4198  -1.0187   H         1 1      0.0000
@<TRIPOS>BOND
     1     1     2    1
     2     1    15    1
     3     1    16    1
     4     1    18    1
     5     2     3    1
     6     2     4    1
     7     2    14    1
     8     4     5    1
     9     4     8    2
    10     5     6    1
    11     5     7    1
    12     5    31    1
    13     8     9    1
    14     8    10    1
    15    10    11    1
    16    10    12    1
    17    10    13    1
    18    15    17    1
    19    18    19   ar
    20    18    20   ar
    21    19    21   ar
    22    19    22    1
    23    20    23   ar
    24    20    24    1
    25    21    25   ar
    26    21    26    1
    27    23    25   ar
    28    23    27    1
    29    25    28   un
    30    28    29   un
    31    28    30   un
    32    31    32    1
    33    31    33    1
    34    31    34    1
@<TRIPOS>SUBSTRUCTURE
     1 1           1 GROUP             0 ****  ****    0  
@<TRIPOS>MOLECULE
Molecule Name_00001_00001_00005
    34    34     1     0     0
SMALL
NO_CHARGES
****
Generated from the CSD

@<TRIPOS>ATOM
     1 C11      1.1114   0.0263   0.8370   C.3       1 1      0.0000
     2 C12      1.9197   0.1412  -0.4517   C.3       1 1      0.0000
     3 H12A     1.7429   1.1269  -0.8992   H         1 1      0.0000
     4 C13      3.3911  -0.0439  -0.2353   C.2       1 1      0.0000
     5 C14      3.9067  -1.4474  -0.1348   C.3       1 1      0.0000
     6 H14B     3.2657  -2.0176   0.5488   H         1 1      0.0000
     7 H14A     4.9171  -1.4297   0.2922   H         1 1      0.0000
     8 N        4.2019   0.9875  -0.1118   N.pl3     1 1      0.0000
     9 HN       5.1856   0.7771   0.0561   H         1 1      0.0000
    10 C        3.8609   2.3869  -0.3222   C.3       1 1      0.0000
    11 HC       4.7490   2.9672  -0.5637   H         1 1      0.0000
    12 HB       3.1538   2.4950  -1.1417   H         1 1      0.0000
    13 HA       3.4112   2.8128   0.5723   H         1 1      0.0000
    14 H12B     1.5665  -0.6152  -1.1634   H         1 1      0.0000
    15 O1       1.4258   1.1407   1.6678   O.3       1 1      0.0000
    16 H11      1.3997  -0.8998   1.3579   H         1 1      0.0000
    17 OH1      0.9225   1.0706   2.5162   H         1 1      0.0000
    18 C10     -0.3727  -0.0226   0.5372   C.ar      1 1      0.0000
    19 C9      -1.0301  -1.2396   0.4172   C.ar      1 1      0.0000
    20 C5      -1.1019   1.1487   0.3828   C.ar      1 1      0.0000
    21 C8      -2.3843  -1.2909   0.1471   C.ar      1 1      0.0000
    22 H9      -0.4730  -2.1629   0.5372   H         1 1      0.0000
    23 C6      -2.4565   1.1108   0.1124   C.ar      1 1      0.0000
    24 H5      -0.6013   2.1068   0.4756   H         1 1      0.0000
    25 C7      -3.0982  -0.1124  -0.0057   C.ar      1 1      0.0000
    26 H8      -2.8861  -2.2485   0.0551   H         1 1      0.0000
    27 H6      -3.0148   2.0335  -0.0067   H         1 1      0.0000
    28 NO      -4.4055  -0.1555  -0.2669   N.pl3     1 1      0.0000
    29 ON2     -4.9662   0.8395  -0.7919   O.2       1 1      0.0000
    30 ON1     -5.0605  -1.1906   0.0151   O.2       1 1      0.0000
    31 C15      3.9461  -2.1486  -1.4841   C.3       1 1      0.0000
    32 H15A     4.5937  -1.6154  -2.1771   H         1 1      0.0000
    33 H15C     4.3236  -3.1637  -1.3803   H         1 1      0.0000
    34 H15B     2.9512  -2.2000  -1.9213   H         1 1      0.0000
@<TRIPOS>BOND
     1     1     2    1
     2     1    15    1
     3     1    16    1
     4     1    18    1
     5     2     3    1
     6     2     4    1
     7     2    14    1
     8     4     5    1
     9     4     8    2
    10     5     6    1
    11     5     7    1
    12     5    31    1
    13     8     9    1
    14     8    10    1
    15    10    11    1
    16    10    12    1
    17    10    13    1
    18    15    17    1
    19    18    19   ar
    20    18    20   ar
    21    19    21   ar
    22    19    22    1
    23    20    23   ar
    24    20    24    1
    25    21    25   ar
    26    21    26    1
    27    23    25   ar
    28    23    27    1
    29    25    28   un
    30    28    29   un
    31    28    30   un
    32    31    32    1
    33    31    33    1
    34    31    34    1
@<TRIPOS>SUBSTRUCTURE
     1 1           1 GROUP             0 ****  ****    0  
@<TRIPOS>MOLECULE
Molecule Name_00001_00001_00006
    34    34     1     0     0
SMALL
NO_CHARGES
****
Generated from the CSD

@<TRIPOS>ATOM
     1 C11      1.1826  -0.0759   0.5784   C.3       1 1      0.0000
     2 C12      1.8900   0.2504  -0.7332   C.3       1 1      0.0000
     3 H12A     1.6731   1.2897  -1.0088   H         1 1      0.0000
     4 C13      3.3749   0.0615  -0.6572   C.2       1 1      0.0000
     5 C14      3.9093  -1.3243  -0.8567   C.3       1 1      0.0000
     6 H14B     4.9908  -1.2706  -1.0322   H         1 1      0.0000
     7 H14A     3.4477  -1.7627  -1.7501   H         1 1      0.0000
     8 N        4.1829   1.0699  -0.3993   N.pl3     1 1      0.0000
     9 HN       5.1781   0.8542  -0.3420   H         1 1      0.0000
    10 C        3.8148   2.4760  -0.3203   C.3       1 1      0.0000
    11 HC       4.6763   3.1109  -0.5164   H         1 1      0.0000
    12 HB       3.0446   2.7171  -1.0498   H         1 1      0.0000
    13 HA       3.4331   2.7196   0.6690   H         1 1      0.0000
    14 H12B     1.4891  -0.3942  -1.5251   H         1 1      0.0000
    15 O1       1.5642   0.8940   1.5504   O.3       1 1      0.0000
    16 H11      1.5065  -1.0709   0.9209   H         1 1      0.0000
    17 OH1      1.1272   0.6849   2.4126   H         1 1      0.0000
    18 C10     -0.3203  -0.0888   0.3889   C.ar      1 1      0.0000
    19 C9      -0.9897  -1.2764   0.1263   C.ar      1 1      0.0000
    20 C5      -1.0546   1.0860   0.4802   C.ar      1 1      0.0000
    21 C8      -2.3608  -1.2953  -0.0443   C.ar      1 1      0.0000
    22 H9      -0.4286  -2.2022   0.0541   H         1 1      0.0000
    23 C6      -2.4261   1.0804   0.3115   C.ar      1 1      0.0000
    24 H5      -0.5447   2.0211   0.6866   H         1 1      0.0000
    25 C7      -3.0798  -0.1136   0.0485   C.ar      1 1      0.0000
    26 H8      -2.8720  -2.2301  -0.2498   H         1 1      0.0000
    27 H6      -2.9883   2.0055   0.3846   H         1 1      0.0000
    28 NO      -4.4034  -0.1254  -0.1157   N.pl3     1 1      0.0000
    29 ON2     -4.9988   0.9360  -0.4302   O.2       1 1      0.0000
    30 ON1     -5.0389  -1.1978   0.0463   O.2       1 1      0.0000
    31 C15      3.6416  -2.2265   0.3385   C.3       1 1      0.0000
    32 H15A     2.6245  -2.6119   0.3106   H         1 1      0.0000
    33 H15C     4.3249  -3.0732   0.3432   H         1 1      0.0000
    34 H15B     3.7718  -1.6807   1.2706   H         1 1      0.0000
@<TRIPOS>BOND
     1     1     2    1
     2     1    15    1
     3     1    16    1
     4     1    18    1
     5     2     3    1
     6     2     4    1
     7     2    14    1
     8     4     5    1
     9     4     8    2
    10     5     6    1
    11     5     7    1
    12     5    31    1
    13     8     9    1
    14     8    10    1
    15    10    11    1
    16    10    12    1
    17    10    13    1
    18    15    17    1
    19    18    19   ar
    20    18    20   ar
    21    19    21   ar
    22    19    22    1
    23    20    23   ar
    24    20    24    1
    25    21    25   ar
    26    21    26    1
    27    23    25   ar
    28    23    27    1
    29    25    28   un
    30    28    29   un
    31    28    30   un
    32    31    32    1
    33    31    33    1
    34    31    34    1
@<TRIPOS>SUBSTRUCTURE
     1 1           1 GROUP             0 ****  ****    0  
@<TRIPOS>MOLECULE
Molecule Name_00001_00001_00007
    34    34     1     0     0
SMALL
NO_CHARGES
****
Generated from the CSD

@<TRIPOS>ATOM
     1 C11      1.0783   0.0289  -0.8456   C.3       1 1      0.0000
     2 C12      1.9492  -0.0899   0.4013   C.3       1 1      0.0000
     3 H12A     1.8253  -1.0913   0.8312   H         1 1      0.0000
     4 C13      3.4022   0.1494   0.1225   C.2       1 1      0.0000
     5 C14      4.2117  -1.0065  -0.3817   C.3       1 1      0.0000
     6 H14B     5.1746  -0.6356  -0.7542   H         1 1      0.0000
     7 H14A     3.6860  -1.4738  -1.2235   H         1 1      0.0000
     8 N        3.9575   1.3252   0.3357   N.pl3     1 1      0.0000
     9 HN       4.9562   1.4000   0.1425   H         1 1      0.0000
    10 C        3.2677   2.5571   0.6900   C.3       1 1      0.0000
    11 HC       3.8099   3.4230   0.3159   H         1 1      0.0000
    12 HB       2.2662   2.5768   0.2657   H         1 1      0.0000
    13 HA       3.1804   2.6531   1.7702   H         1 1      0.0000
    14 H12B     1.6053   0.6371   1.1475   H         1 1      0.0000
    15 O1       1.3837  -1.0587  -1.7145   O.3       1 1      0.0000
    16 H11      1.3165   0.9734  -1.3588   H         1 1      0.0000
    17 OH1      0.8393  -0.9852  -2.5369   H         1 1      0.0000
    18 C10     -0.3908   0.0296  -0.4762   C.ar      1 1      0.0000
    19 C9      -1.0748   1.2247  -0.2991   C.ar      1 1      0.0000
    20 C5      -1.0797  -1.1648  -0.3141   C.ar      1 1      0.0000
    21 C8      -2.4156   1.2321   0.0347   C.ar      1 1      0.0000
    22 H9      -0.5493   2.1657  -0.4244   H         1 1      0.0000
    23 C6      -2.4206  -1.1709   0.0196   C.ar      1 1      0.0000
    24 H5      -0.5581  -2.1063  -0.4512   H         1 1      0.0000
    25 C7      -3.0892   0.0309   0.1944   C.ar      1 1      0.0000
    26 H8      -2.9385   2.1730   0.1710   H         1 1      0.0000
    27 H6      -2.9473  -2.1113   0.1442   H         1 1      0.0000
    28 NO      -4.3835   0.0316   0.5169   N.pl3     1 1      0.0000
    29 ON2     -4.8914  -0.9895   1.0453   O.2       1 1      0.0000
    30 ON1     -5.0789   1.0534   0.2885   O.2       1 1      0.0000
    31 C15      4.4620  -2.0522   0.6944   C.3       1 1      0.0000
    32 H15A     3.5223  -2.4542   1.0675   H         1 1      0.0000
    33 H15C     5.0511  -2.8777   0.3004   H         1 1      0.0000
    34 H15B     5.0029  -1.6202   1.5337   H         1 1      0.0000
@<TRIPOS>BOND
     1     1     2    1
     2     1    15    1
     3     1    16    1
     4     1    18    1
     5     2     3    1
     6     2     4    1
     7     2    14    1
     8     4     5    1
     9     4     8    2
    10     5     6    1
    11     5     7    1
    12     5    31    1
    13     8     9    1
    14     8    10    1
    15    10    11    1
    16    10    12    1
    17    10    13    1
    18    15    17    1
    19    18    19   ar
    20    18    20   ar
    21    19    21   ar
    22    19    22    1
    23    20    23   ar
    24    20    24    1
    25    21    25   ar
    26    21    26    1
    27    23    25   ar
    28    23    27    1
    29    25    28   un
    30    28    29   un
    31    28    30   un
    32    31    32    1
    33    31    33    1
    34    31    34    1
@<TRIPOS>SUBSTRUCTURE
     1 1           1 GROUP             0 ****  ****    0  
@<TRIPOS>MOLECULE
Molecule Name_00001_00001_00008
    34    34     1     0     0
SMALL
NO_CHARGES
****
Generated from the CSD

@<TRIPOS>ATOM
     1 C11      1.1119   0.0265   0.8410   C.3       1 1      0.0000
     2 C12      1.9172   0.1413  -0.4496   C.3       1 1      0.0000
     3 H12A     1.7393   1.1269  -0.8968   H         1 1      0.0000
     4 C13      3.3892  -0.0437  -0.2366   C.2       1 1      0.0000
     5 C14      3.9050  -1.4472  -0.1371   C.3       1 1      0.0000
     6 H14B     3.2656  -2.0174   0.5480   H         1 1      0.0000
     7 H14A     4.9164  -1.4295   0.2875   H         1 1      0.0000
     8 N        4.2002   0.9877  -0.1151   N.pl3     1 1      0.0000
     9 HN       5.1843   0.7774   0.0505   H         1 1      0.0000
    10 C        3.8587   2.3870  -0.3248   C.3       1 1      0.0000
    11 HC       4.7461   2.9674  -0.5684   H         1 1      0.0000
    12 HB       3.1496   2.4951  -1.1427   H         1 1      0.0000
    13 HA       3.4110   2.8130   0.5706   H         1 1      0.0000
    14 H12B     1.5624  -0.6152  -1.1603   H         1 1      0.0000
    15 O1       1.4283   1.1410   1.6710   O.3       1 1      0.0000
    16 H11      1.4016  -0.8996   1.3613   H         1 1      0.0000
    17 OH1      0.9269   1.0709   2.5206   H         1 1      0.0000
    18 C10     -0.3729  -0.0225   0.5447   C.ar      1 1      0.0000
    19 C9      -1.1013   1.1487   0.3864   C.ar      1 1      0.0000
    20 C5      -1.0294  -1.2396   0.4209   C.ar      1 1      0.0000
    21 C8      -2.4552   1.1107   0.1128   C.ar      1 1      0.0000
    22 H9      -0.6007   2.1069   0.4788   H         1 1      0.0000
    23 C6      -2.3829  -1.2911   0.1475   C.ar      1 1      0.0000
    24 H5      -0.4721  -2.1628   0.5405   H         1 1      0.0000
    25 C7      -3.0967  -0.1126  -0.0065   C.ar      1 1      0.0000
    26 H8      -3.0133   2.0333  -0.0080   H         1 1      0.0000
    27 H6      -2.8843  -2.2487   0.0538   H         1 1      0.0000
    28 NO      -4.4035  -0.1557  -0.2702   N.pl3     1 1      0.0000
    29 ON2     -5.0589  -1.1908   0.0107   O.2       1 1      0.0000
    30 ON1     -4.9632   0.8393  -0.7961   O.2       1 1      0.0000
    31 C15      3.9413  -2.1486  -1.4865   C.3       1 1      0.0000
    32 H15A     4.5872  -1.6155  -2.1811   H         1 1      0.0000
    33 H15C     4.3191  -3.1637  -1.3835   H         1 1      0.0000
    34 H15B     2.9453  -2.2001  -1.9213   H         1 1      0.0000
@<TRIPOS>BOND
     1     1     2    1
     2     1    15    1
     3     1    16    1
     4     1    18    1
     5     2     3    1
     6     2     4    1
     7     2    14    1
     8     4     5    1
     9     4     8    2
    10     5     6    1
    11     5     7    1
    12     5    31    1
    13     8     9    1
    14     8    10    1
    15    10    11    1
    16    10    12    1
    17    10    13    1
    18    15    17    1
    19    18    19   ar
    20    18    20   ar
    21    19    21   ar
    22    19    22    1
    23    20    23   ar
    24    20    24    1
    25    21    25   ar
    26    21    26    1
    27    23    25   ar
    28    23    27    1
    29    25    28   un
    30    28    29   un
    31    28    30   un
    32    31    32    1
    33    31    33    1
    34    31    34    1
@<TRIPOS>SUBSTRUCTURE
     1 1           1 GROUP             0 ****  ****    0  
@<TRIPOS>MOLECULE
Molecule Name_00001_00001_00009
    34    34     1     0     0
SMALL
NO_CHARGES
****
Generated from the CSD

@<TRIPOS>ATOM
     1 C11      1.1831  -0.0763   0.5823   C.3       1 1      0.0000
     2 C12      1.8873   0.2500  -0.7311   C.3       1 1      0.0000
     3 H12A     1.6693   1.2891  -1.0064   H         1 1      0.0000
     4 C13      3.3724   0.0616  -0.6587   C.2       1 1      0.0000
     5 C14      3.9069  -1.3240  -0.8592   C.3       1 1      0.0000
     6 H14B     4.9879  -1.2699  -1.0373   H         1 1      0.0000
     7 H14A     3.4433  -1.7627  -1.7514   H         1 1      0.0000
     8 N        4.1807   1.0704  -0.4029   N.pl3     1 1      0.0000
     9 HN       5.1760   0.8551  -0.3479   H         1 1      0.0000
    10 C        3.8122   2.4763  -0.3232   C.3       1 1      0.0000
    11 HC       4.6729   3.1115  -0.5216   H         1 1      0.0000
    12 HB       3.0402   2.7170  -1.0509   H         1 1      0.0000
    13 HA       3.4327   2.7200   0.6669   H         1 1      0.0000
    14 H12B     1.4847  -0.3949  -1.5219   H         1 1      0.0000
    15 O1       1.5667   0.8939   1.5532   O.3       1 1      0.0000
    16 H11      1.5082  -1.0712   0.9241   H         1 1      0.0000
    17 OH1      1.1319   0.6847   2.4164   H         1 1      0.0000
    18 C10     -0.3202  -0.0898   0.3964   C.ar      1 1      0.0000
    19 C9      -1.0541   1.0855   0.4836   C.ar      1 1      0.0000
    20 C5      -0.9891  -1.2769   0.1300   C.ar      1 1      0.0000
    21 C8      -2.4251   1.0803   0.3118   C.ar      1 1      0.0000
    22 H9      -0.5441   2.0207   0.6895   H         1 1      0.0000
    23 C6      -2.3598  -1.2954  -0.0437   C.ar      1 1      0.0000
    24 H5      -0.4280  -2.2027   0.0574   H         1 1      0.0000
    25 C7      -3.0787  -0.1135   0.0478   C.ar      1 1      0.0000
    26 H8      -2.9872   2.0056   0.3832   H         1 1      0.0000
    27 H6      -2.8708  -2.2300  -0.2507   H         1 1      0.0000
    28 NO      -4.4021  -0.1250  -0.1187   N.pl3     1 1      0.0000
    29 ON2     -5.0381  -1.1971   0.0423   O.2       1 1      0.0000
    30 ON1     -4.9966   0.9366  -0.4343   O.2       1 1      0.0000
    31 C15      3.6424  -2.2261   0.3367   C.3       1 1      0.0000
    32 H15A     2.6254  -2.6119   0.3114   H         1 1      0.0000
    33 H15C     4.3260  -3.0726   0.3400   H         1 1      0.0000
    34 H15B     3.7746  -1.6801   1.2685   H         1 1      0.0000
@<TRIPOS>BOND
     1     1     2    1
     2     1    15    1
     3     1    16    1
     4     1    18    1
     5     2     3    1
     6     2     4    1
     7     2    14    1
     8     4     5    1
     9     4     8    2
    10     5     6    1
    11     5     7    1
    12     5    31    1
    13     8     9    1
    14     8    10    1
    15    10    11    1
    16    10    12    1
    17    10    13    1
    18    15    17    1
    19    18    19   ar
    20    18    20   ar
    21    19    21   ar
    22    19    22    1
    23    20    23   ar
    24    20    24    1
    25    21    25   ar
    26    21    26    1
    27    23    25   ar
    28    23    27    1
    29    25    28   un
    30    28    29   un
    31    28    30   un
    32    31    32    1
    33    31    33    1
    34    31    34    1
@<TRIPOS>SUBSTRUCTURE
     1 1           1 GROUP             0 ****  ****    0  
@<TRIPOS>MOLECULE
Molecule Name_00001_00001_00010
    34    34     1     0     0
SMALL
NO_CHARGES
****
Generated from the CSD

@<TRIPOS>ATOM
     1 C11      1.0788   0.0294  -0.8495   C.3       1 1      0.0000
     2 C12      1.9466  -0.0902   0.3995   C.3       1 1      0.0000
     3 H12A     1.8216  -1.0919   0.8284   H         1 1      0.0000
     4 C13      3.4003   0.1493   0.1243   C.2       1 1      0.0000
     5 C14      4.2110  -1.0064  -0.3786   C.3       1 1      0.0000
     6 H14B     5.1747  -0.6353  -0.7485   H         1 1      0.0000
     7 H14A     3.6873  -1.4732  -1.2220   H         1 1      0.0000
     8 N        3.9551   1.3249   0.3397   N.pl3     1 1      0.0000
     9 HN       4.9542   1.3998   0.1490   H         1 1      0.0000
    10 C        3.2645   2.5565   0.6930   C.3       1 1      0.0000
    11 HC       3.8077   3.4226   0.3209   H         1 1      0.0000
    12 HB       2.2640   2.5766   0.2663   H         1 1      0.0000
    13 HA       3.1746   2.6519   1.7731   H         1 1      0.0000
    14 H12B     1.6009   0.6363   1.1453   H         1 1      0.0000
    15 O1       1.3862  -1.0576  -1.7184   O.3       1 1      0.0000
    16 H11      1.3183   0.9743  -1.3615   H         1 1      0.0000
    17 OH1      0.8438  -0.9835  -2.5420   H         1 1      0.0000
    18 C10     -0.3912   0.0300  -0.4837   C.ar      1 1      0.0000
    19 C9      -1.0792  -1.1645  -0.3185   C.ar      1 1      0.0000
    20 C5      -1.0742   1.2250  -0.3020   C.ar      1 1      0.0000
    21 C8      -2.4193  -1.1708   0.0182   C.ar      1 1      0.0000
    22 H9      -0.5575  -2.1059  -0.4558   H         1 1      0.0000
    23 C6      -2.4143   1.2322   0.0348   C.ar      1 1      0.0000
    24 H5      -0.5486   2.1660  -0.4262   H         1 1      0.0000
    25 C7      -3.0877   0.0309   0.1949   C.ar      1 1      0.0000
    26 H8      -2.9458  -2.1112   0.1438   H         1 1      0.0000
    27 H6      -2.9368   2.1730   0.1734   H         1 1      0.0000
    28 NO      -4.3814   0.0314   0.5197   N.pl3     1 1      0.0000
    29 ON2     -5.0773   1.0533   0.2931   O.2       1 1      0.0000
    30 ON1     -4.8884  -0.9902   1.0482   O.2       1 1      0.0000
    31 C15      4.4586  -2.0528   0.6974   C.3       1 1      0.0000
    32 H15A     3.5180  -2.4550   1.0680   H         1 1      0.0000
    33 H15C     5.0486  -2.8781   0.3043   H         1 1      0.0000
    34 H15B     4.9974  -1.6213   1.5383   H         1 1      0.0000
@<TRIPOS>BOND
     1     1     2    1
     2     1    15    1
     3     1    16    1
     4     1    18    1
     5     2     3    1
     6     2     4    1
     7     2    14    1
     8     4     5    1
     9     4     8    2
    10     5     6    1
    11     5     7    1
    12     5    31    1
    13     8     9    1
    14     8    10    1
    15    10    11    1
    16    10    12    1
    17    10    13    1
    18    15    17    1
    19    18    19   ar
    20    18    20   ar
    21    19    21   ar
    22    19    22    1
    23    20    23   ar
    24    20    24    1
    25    21    25   ar
    26    21    26    1
    27    23    25   ar
    28    23    27    1
    29    25    28   un
    30    28    29   un
    31    28    30   un
    32    31    32    1
    33    31    33    1
    34    31    34    1
@<TRIPOS>SUBSTRUCTURE
     1 1           1 GROUP             0 ****  ****    0  
@<TRIPOS>MOLECULE
Molecule Name_00001_00001_00011
    34    34     1     0     0
SMALL
NO_CHARGES
****
Generated from the CSD

@<TRIPOS>ATOM
     1 C11      1.3677   0.1106   1.8134   C.3       1 1      0.0000
     2 C12      2.4359   0.7057   0.9011   C.3       1 1      0.0000
     3 H12A     3.3827   0.7688   1.4512   H         1 1      0.0000
     4 C13      2.6459  -0.0938  -0.3491   C.2       1 1      0.0000
     5 C14      3.5200  -1.3076  -0.2582   C.3       1 1      0.0000
     6 H14B     3.0886  -2.0076   0.4679   H         1 1      0.0000
     7 H14A     4.5095  -1.0114   0.1113   H         1 1      0.0000
     8 N        2.1041   0.2682  -1.4945   N.pl3     1 1      0.0000
     9 HN       2.3138  -0.3164  -2.3035   H         1 1      0.0000
    10 C        1.1346   1.3353  -1.6947   C.3       1 1      0.0000
    11 HC       0.2874   0.9810  -2.2782   H         1 1      0.0000
    12 HB       0.7586   1.7018  -0.7419   H         1 1      0.0000
    13 HA       1.5853   2.1712  -2.2256   H         1 1      0.0000
    14 H12B     2.1424   1.7263   0.6261   H         1 1      0.0000
    15 O1       1.3049   0.8917   3.0038   O.3       1 1      0.0000
    16 H11      1.6561  -0.9187   2.0767   H         1 1      0.0000
    17 OH1      0.6285   0.5068   3.6141   H         1 1      0.0000
    18 C10      0.0233   0.0790   1.1161   C.ar      1 1      0.0000
    19 C9      -0.3859  -1.0504   0.4201   C.ar      1 1      0.0000
    20 C5      -0.8251   1.1769   1.1660   C.ar      1 1      0.0000
    21 C8      -1.6124  -1.0868  -0.2153   C.ar      1 1      0.0000
    22 H9       0.2663  -1.9163   0.3744   H         1 1      0.0000
    23 C6      -2.0541   1.1531   0.5348   C.ar      1 1      0.0000
    24 H5      -0.5189   2.0656   1.7078   H         1 1      0.0000
    25 C7      -2.4477   0.0182  -0.1574   C.ar      1 1      0.0000
    26 H8      -1.9201  -1.9753  -0.7566   H         1 1      0.0000
    27 H6      -2.7076   2.0180   0.5807   H         1 1      0.0000
    28 NO      -3.6327  -0.0107  -0.7691   N.pl3     1 1      0.0000
    29 ON2     -4.2041   1.0690  -1.0654   O.2       1 1      0.0000
    30 ON1     -4.1631  -1.1172  -1.0415   O.2       1 1      0.0000
    31 C15      3.6764  -2.0111  -1.5979   C.3       1 1      0.0000
    32 H15A     4.1235  -1.3454  -2.3332   H         1 1      0.0000
    33 H15C     4.3147  -2.8869  -1.5014   H         1 1      0.0000
    34 H15B     2.7102  -2.3360  -1.9780   H         1 1      0.0000
@<TRIPOS>BOND
     1     1     2    1
     2     1    15    1
     3     1    16    1
     4     1    18    1
     5     2     3    1
     6     2     4    1
     7     2    14    1
     8     4     5    1
     9     4     8    2
    10     5     6    1
    11     5     7    1
    12     5    31    1
    13     8     9    1
    14     8    10    1
    15    10    11    1
    16    10    12    1
    17    10    13    1
    18    15    17    1
    19    18    19   ar
    20    18    20   ar
    21    19    21   ar
    22    19    22    1
    23    20    23   ar
    24    20    24    1
    25    21    25   ar
    26    21    26    1
    27    23    25   ar
    28    23    27    1
    29    25    28   un
    30    28    29   un
    31    28    30   un
    32    31    32    1
    33    31    33    1
    34    31    34    1
@<TRIPOS>SUBSTRUCTURE
     1 1           1 GROUP             0 ****  ****    0  
@<TRIPOS>MOLECULE
Molecule Name_00001_00001_00012
    34    34     1     0     0
SMALL
NO_CHARGES
****
Generated from the CSD

@<TRIPOS>ATOM
     1 C11      1.2259   1.2314   1.3316   C.3       1 1      0.0000
     2 C12      2.2411   1.3425   0.1984   C.3       1 1      0.0000
     3 H12A     3.1694   1.7762   0.5898   H         1 1      0.0000
     4 C13      2.5467   0.0223  -0.4419   C.2       1 1      0.0000
     5 C14      1.6878  -0.4062  -1.5928   C.3       1 1      0.0000
     6 H14B     1.7733   0.3322  -2.3995   H         1 1      0.0000
     7 H14A     0.6394  -0.4284  -1.2705   H         1 1      0.0000
     8 N        3.5180  -0.7484   0.0040   N.pl3     1 1      0.0000
     9 HN       3.6471  -1.6413  -0.4718   H         1 1      0.0000
    10 C        4.5057  -0.3992   1.0145   C.3       1 1      0.0000
    11 HC       5.4184  -0.9749   0.8757   H         1 1      0.0000
    12 HB       4.7610   0.6568   0.9590   H         1 1      0.0000
    13 HA       4.1249  -0.6041   2.0129   H         1 1      0.0000
    14 H12B     1.8505   2.0266  -0.5651   H         1 1      0.0000
    15 O1       1.0538   2.5219   1.9115   O.3       1 1      0.0000
    16 H11      1.6195   0.5456   2.0977   H         1 1      0.0000
    17 OH1      0.4111   2.4625   2.6609   H         1 1      0.0000
    18 C10     -0.0926   0.6887   0.8199   C.ar      1 1      0.0000
    19 C9      -0.4008  -0.6588   0.9498   C.ar      1 1      0.0000
    20 C5      -1.0176   1.5305   0.2172   C.ar      1 1      0.0000
    21 C8      -1.6030  -1.1594   0.4880   C.ar      1 1      0.0000
    22 H9       0.3121  -1.3278   1.4204   H         1 1      0.0000
    23 C6      -2.2233   1.0422  -0.2488   C.ar      1 1      0.0000
    24 H5      -0.7906   2.5861   0.1106   H         1 1      0.0000
    25 C7      -2.5157  -0.3061  -0.1128   C.ar      1 1      0.0000
    26 H8      -1.8315  -2.2147   0.5950   H         1 1      0.0000
    27 H6      -2.9375   1.7105  -0.7185   H         1 1      0.0000
    28 NO      -3.6778  -0.7835  -0.5609   N.pl3     1 1      0.0000
    29 ON2     -4.3155  -0.1436  -1.4348   O.2       1 1      0.0000
    30 ON1     -4.1206  -1.8674  -0.1037   O.2       1 1      0.0000
    31 C15      2.0759  -1.7766  -2.1271   C.3       1 1      0.0000
    32 H15A     1.9793  -2.5342  -1.3522   H         1 1      0.0000
    33 H15C     1.4368  -2.0608  -2.9605   H         1 1      0.0000
    34 H15B     3.1068  -1.7772  -2.4750   H         1 1      0.0000
@<TRIPOS>BOND
     1     1     2    1
     2     1    15    1
     3     1    16    1
     4     1    18    1
     5     2     3    1
     6     2     4    1
     7     2    14    1
     8     4     5    1
     9     4     8    2
    10     5     6    1
    11     5     7    1
    12     5    31    1
    13     8     9    1
    14     8    10    1
    15    10    11    1
    16    10    12    1
    17    10    13    1
    18    15    17    1
    19    18    19   ar
    20    18    20   ar
    21    19    21   ar
    22    19    22    1
    23    20    23   ar
    24    20    24    1
    25    21    25   ar
    26    21    26    1
    27    23    25   ar
    28    23    27    1
    29    25    28   un
    30    28    29   un
    31    28    30   un
    32    31    32    1
    33    31    33    1
    34    31    34    1
@<TRIPOS>SUBSTRUCTURE
     1 1           1 GROUP             0 ****  ****    0  
@<TRIPOS>MOLECULE
Molecule Name_00001_00001_00013
    34    34     1     0     0
SMALL
NO_CHARGES
****
Generated from the CSD

@<TRIPOS>ATOM
     1 C11      1.3691   0.1120   1.8150   C.3       1 1      0.0000
     2 C12      2.4342   0.7074   0.8992   C.3       1 1      0.0000
     3 H12A     3.3821   0.7730   1.4470   H         1 1      0.0000
     4 C13      2.6425  -0.0937  -0.3502   C.2       1 1      0.0000
     5 C14      3.5185  -1.3062  -0.2593   C.3       1 1      0.0000
     6 H14B     3.0895  -2.0057   0.4688   H         1 1      0.0000
     7 H14A     4.5084  -1.0082   0.1077   H         1 1      0.0000
     8 N        2.0979   0.2658  -1.4950   N.pl3     1 1      0.0000
     9 HN       2.3067  -0.3198  -2.3035   H         1 1      0.0000
    10 C        1.1265   1.3313  -1.6948   C.3       1 1      0.0000
    11 HC       0.2783   0.9748  -2.2754   H         1 1      0.0000
    12 HB       0.7526   1.6993  -0.7418   H         1 1      0.0000
    13 HA       1.5749   2.1667  -2.2286   H         1 1      0.0000
    14 H12B     2.1383   1.7270   0.6233   H         1 1      0.0000
    15 O1       1.3086   0.8942   3.0048   O.3       1 1      0.0000
    16 H11      1.6595  -0.9168   2.0786   H         1 1      0.0000
    17 OH1      0.6343   0.5091   3.6173   H         1 1      0.0000
    18 C10      0.0229   0.0780   1.1214   C.ar      1 1      0.0000
    19 C9      -0.8248   1.1765   1.1686   C.ar      1 1      0.0000
    20 C5      -0.3839  -1.0502   0.4220   C.ar      1 1      0.0000
    21 C8      -2.0527   1.1530   0.5353   C.ar      1 1      0.0000
    22 H9      -0.5190   2.0656   1.7102   H         1 1      0.0000
    23 C6      -1.6093  -1.0863  -0.2156   C.ar      1 1      0.0000
    24 H5       0.2692  -1.9153   0.3753   H         1 1      0.0000
    25 C7      -2.4451   0.0184  -0.1580   C.ar      1 1      0.0000
    26 H8      -2.7063   2.0179   0.5804   H         1 1      0.0000
    27 H6      -1.9158  -1.9744  -0.7583   H         1 1      0.0000
    28 NO      -3.6294  -0.0105  -0.7710   N.pl3     1 1      0.0000
    29 ON2     -4.1592  -1.1170  -1.0447   O.2       1 1      0.0000
    30 ON1     -4.2008   1.0691  -1.0673   O.2       1 1      0.0000
    31 C15      3.6730  -2.0116  -1.5982   C.3       1 1      0.0000
    32 H15A     4.1176  -1.3464  -2.3355   H         1 1      0.0000
    33 H15C     4.3125  -2.8865  -1.5017   H         1 1      0.0000
    34 H15B     2.7063  -2.3384  -1.9758   H         1 1      0.0000
@<TRIPOS>BOND
     1     1     2    1
     2     1    15    1
     3     1    16    1
     4     1    18    1
     5     2     3    1
     6     2     4    1
     7     2    14    1
     8     4     5    1
     9     4     8    2
    10     5     6    1
    11     5     7    1
    12     5    31    1
    13     8     9    1
    14     8    10    1
    15    10    11    1
    16    10    12    1
    17    10    13    1
    18    15    17    1
    19    18    19   ar
    20    18    20   ar
    21    19    21   ar
    22    19    22    1
    23    20    23   ar
    24    20    24    1
    25    21    25   ar
    26    21    26    1
    27    23    25   ar
    28    23    27    1
    29    25    28   un
    30    28    29   un
    31    28    30   un
    32    31    32    1
    33    31    33    1
    34    31    34    1
@<TRIPOS>SUBSTRUCTURE
     1 1           1 GROUP             0 ****  ****    0  
@<TRIPOS>MOLECULE
Molecule Name_00001_00001_00014
    34    34     1     0     0
SMALL
NO_CHARGES
****
Generated from the CSD

@<TRIPOS>ATOM
     1 C11      1.2272   1.2314   1.3355   C.3       1 1      0.0000
     2 C12      2.2397   1.3427   0.1998   C.3       1 1      0.0000
     3 H12A     3.1694   1.7749   0.5893   H         1 1      0.0000
     4 C13      2.5422   0.0229  -0.4428   C.2       1 1      0.0000
     5 C14      1.6808  -0.4028  -1.5927   C.3       1 1      0.0000
     6 H14B     1.7664   0.3363  -2.3988   H         1 1      0.0000
     7 H14A     0.6329  -0.4233  -1.2689   H         1 1      0.0000
     8 N        3.5131  -0.7499   0.0004   N.pl3     1 1      0.0000
     9 HN       3.6401  -1.6423  -0.4767   H         1 1      0.0000
    10 C        4.5031  -0.4034   1.0098   C.3       1 1      0.0000
    11 HC       5.4147  -0.9803   0.8687   H         1 1      0.0000
    12 HB       4.7598   0.6523   0.9554   H         1 1      0.0000
    13 HA       4.1236  -0.6092   2.0086   H         1 1      0.0000
    14 H12B     1.8479   2.0281  -0.5619   H         1 1      0.0000
    15 O1       1.0572   2.5217   1.9165   O.3       1 1      0.0000
    16 H11      1.6225   0.5450   2.1002   H         1 1      0.0000
    17 OH1      0.4164   2.4621   2.6674   H         1 1      0.0000
    18 C10     -0.0927   0.6895   0.8268   C.ar      1 1      0.0000
    19 C9      -1.0161   1.5309   0.2210   C.ar      1 1      0.0000
    20 C5      -0.3992  -0.6587   0.9526   C.ar      1 1      0.0000
    21 C8      -2.2205   1.0422  -0.2480   C.ar      1 1      0.0000
    22 H9      -0.7890   2.5865   0.1145   H         1 1      0.0000
    23 C6      -1.6001  -1.1598   0.4877   C.ar      1 1      0.0000
    24 H5       0.3140  -1.3280   1.4223   H         1 1      0.0000
    25 C7      -2.5124  -0.3065  -0.1137   C.ar      1 1      0.0000
    26 H8      -2.9340   1.7103  -0.7190   H         1 1      0.0000
    27 H6      -1.8278  -2.2154   0.5927   H         1 1      0.0000
    28 NO      -3.6734  -0.7841  -0.5642   N.pl3     1 1      0.0000
    29 ON2     -4.1164  -1.8687  -0.1088   O.2       1 1      0.0000
    30 ON1     -4.3101  -0.1436  -1.4385   O.2       1 1      0.0000
    31 C15      2.0655  -1.7734  -2.1291   C.3       1 1      0.0000
    32 H15A     1.9686  -2.5316  -1.3548   H         1 1      0.0000
    33 H15C     1.4246  -2.0555  -2.9618   H         1 1      0.0000
    34 H15B     3.0958  -1.7756  -2.4785   H         1 1      0.0000
@<TRIPOS>BOND
     1     1     2    1
     2     1    15    1
     3     1    16    1
     4     1    18    1
     5     2     3    1
     6     2     4    1
     7     2    14    1
     8     4     5    1
     9     4     8    2
    10     5     6    1
    11     5     7    1
    12     5    31    1
    13     8     9    1
    14     8    10    1
    15    10    11    1
    16    10    12    1
    17    10    13    1
    18    15    17    1
    19    18    19   ar
    20    18    20   ar
    21    19    21   ar
    22    19    22    1
    23    20    23   ar
    24    20    24    1
    25    21    25   ar
    26    21    26    1
    27    23    25   ar
    28    23    27    1
    29    25    28   un
    30    28    29   un
    31    28    30   un
    32    31    32    1
    33    31    33    1
    34    31    34    1
@<TRIPOS>SUBSTRUCTURE
     1 1           1 GROUP             0 ****  ****    0  
@<TRIPOS>MOLECULE
Molecule Name_00001_00001_00015
    34    34     1     0     0
SMALL
NO_CHARGES
****
Generated from the CSD

@<TRIPOS>ATOM
     1 C11      1.0543  -0.6436   0.4286   C.3       1 1      0.0000
     2 C12      1.8507   0.5753  -0.0265   C.3       1 1      0.0000
     3 H12A     1.7583   1.3662   0.7278   H         1 1      0.0000
     4 C13      3.3021   0.2739  -0.2478   C.2       1 1      0.0000
     5 C14      4.0574  -0.3659   0.8773   C.3       1 1      0.0000
     6 H14B     3.6113  -1.3431   1.0999   H         1 1      0.0000
     7 H14A     3.9613   0.2570   1.7752   H         1 1      0.0000
     8 N        3.9024   0.5818  -1.3797   N.pl3     1 1      0.0000
     9 HN       4.8968   0.3644  -1.4427   H         1 1      0.0000
    10 C        3.2647   1.0759  -2.5913   C.3       1 1      0.0000
    11 HC       3.8590   0.8267  -3.4679   H         1 1      0.0000
    12 HB       2.2773   0.6369  -2.7169   H         1 1      0.0000
    13 HA       3.1529   2.1575  -2.5546   H         1 1      0.0000
    14 H12B     1.4194   0.9550  -0.9610   H         1 1      0.0000
    15 O1       1.4071  -0.9349   1.7784   O.3       1 1      0.0000
    16 H11      1.3242  -1.5032  -0.2043   H         1 1      0.0000
    17 OH1      0.9117  -1.7352   2.0822   H         1 1      0.0000
    18 C10     -0.4339  -0.3906   0.3015   C.ar      1 1      0.0000
    19 C9      -1.2364  -1.2485  -0.4383   C.ar      1 1      0.0000
    20 C5      -1.0215   0.7006   0.9273   C.ar      1 1      0.0000
    21 C8      -2.5949  -1.0250  -0.5554   C.ar      1 1      0.0000
    22 H9      -0.7907  -2.1062  -0.9313   H         1 1      0.0000
    23 C6      -2.3789   0.9351   0.8179   C.ar      1 1      0.0000
    24 H5      -0.4066   1.3783   1.5102   H         1 1      0.0000
    25 C7      -3.1666   0.0698   0.0744   C.ar      1 1      0.0000
    26 H8      -3.2110  -1.7027  -1.1372   H         1 1      0.0000
    27 H6      -2.8258   1.7919   1.3113   H         1 1      0.0000
    28 NO      -4.4773   0.2911  -0.0353   N.pl3     1 1      0.0000
    29 ON2     -4.9310   1.4448   0.1723   O.2       1 1      0.0000
    30 ON1     -5.2425  -0.6569  -0.3448   O.2       1 1      0.0000
    31 C15      5.5321  -0.5524   0.5535   C.3       1 1      0.0000
    32 H15A     6.0062   0.4053   0.3495   H         1 1      0.0000
    33 H15C     6.0540  -1.0183   1.3868   H         1 1      0.0000
    34 H15B     5.6576  -1.1861  -0.3219   H         1 1      0.0000
@<TRIPOS>BOND
     1     1     2    1
     2     1    15    1
     3     1    16    1
     4     1    18    1
     5     2     3    1
     6     2     4    1
     7     2    14    1
     8     4     5    1
     9     4     8    2
    10     5     6    1
    11     5     7    1
    12     5    31    1
    13     8     9    1
    14     8    10    1
    15    10    11    1
    16    10    12    1
    17    10    13    1
    18    15    17    1
    19    18    19   ar
    20    18    20   ar
    21    19    21   ar
    22    19    22    1
    23    20    23   ar
    24    20    24    1
    25    21    25   ar
    26    21    26    1
    27    23    25   ar
    28    23    27    1
    29    25    28   un
    30    28    29   un
    31    28    30   un
    32    31    32    1
    33    31    33    1
    34    31    34    1
@<TRIPOS>SUBSTRUCTURE
     1 1           1 GROUP             0 ****  ****    0  
@<TRIPOS>MOLECULE
Molecule Name_00001_00001_00016
    34    34     1     0     0
SMALL
NO_CHARGES
****
Generated from the CSD

@<TRIPOS>ATOM
     1 C11      1.0548  -0.6454   0.4332   C.3       1 1      0.0000
     2 C12      1.8488   0.5738  -0.0255   C.3       1 1      0.0000
     3 H12A     1.7568   1.3658   0.7277   H         1 1      0.0000
     4 C13      3.3001   0.2739  -0.2490   C.2       1 1      0.0000
     5 C14      4.0584  -0.3631   0.8757   C.3       1 1      0.0000
     6 H14B     3.6139  -1.3404   1.1008   H         1 1      0.0000
     7 H14A     3.9632   0.2612   1.7727   H         1 1      0.0000
     8 N        3.8979   0.5807  -1.3825   N.pl3     1 1      0.0000
     9 HN       4.8925   0.3645  -1.4471   H         1 1      0.0000
    10 C        3.2572   1.0720  -2.5938   C.3       1 1      0.0000
    11 HC       3.8502   0.8221  -3.4711   H         1 1      0.0000
    12 HB       2.2702   0.6316  -2.7167   H         1 1      0.0000
    13 HA       3.1441   2.1535  -2.5586   H         1 1      0.0000
    14 H12B     1.4152   0.9514  -0.9597   H         1 1      0.0000
    15 O1       1.4105  -0.9340   1.7827   O.3       1 1      0.0000
    16 H11      1.3246  -1.5056  -0.1988   H         1 1      0.0000
    17 OH1      0.9167  -1.7344   2.0888   H         1 1      0.0000
    18 C10     -0.4339  -0.3944   0.3085   C.ar      1 1      0.0000
    19 C9      -1.0209   0.7001   0.9291   C.ar      1 1      0.0000
    20 C5      -1.2358  -1.2515  -0.4330   C.ar      1 1      0.0000
    21 C8      -2.3777   0.9364   0.8165   C.ar      1 1      0.0000
    22 H9      -0.4059   1.3792   1.5103   H         1 1      0.0000
    23 C6      -2.5938  -1.0263  -0.5532   C.ar      1 1      0.0000
    24 H5      -0.7901  -2.1099  -0.9247   H         1 1      0.0000
    25 C7      -3.1652   0.0704   0.0736   C.ar      1 1      0.0000
    26 H8      -2.8243   1.7950   1.3069   H         1 1      0.0000
    27 H6      -3.2097  -1.7041  -1.1351   H         1 1      0.0000
    28 NO      -4.4756   0.2930  -0.0385   N.pl3     1 1      0.0000
    29 ON2     -5.2414  -0.6548  -0.3472   O.2       1 1      0.0000
    30 ON1     -4.9282   1.4476   0.1661   O.2       1 1      0.0000
    31 C15      5.5327  -0.5482   0.5494   C.3       1 1      0.0000
    32 H15A     6.0052   0.4098   0.3429   H         1 1      0.0000
    33 H15C     6.0567  -1.0121   1.3824   H         1 1      0.0000
    34 H15B     5.6573  -1.1832  -0.3252   H         1 1      0.0000
@<TRIPOS>BOND
     1     1     2    1
     2     1    15    1
     3     1    16    1
     4     1    18    1
     5     2     3    1
     6     2     4    1
     7     2    14    1
     8     4     5    1
     9     4     8    2
    10     5     6    1
    11     5     7    1
    12     5    31    1
    13     8     9    1
    14     8    10    1
    15    10    11    1
    16    10    12    1
    17    10    13    1
    18    15    17    1
    19    18    19   ar
    20    18    20   ar
    21    19    21   ar
    22    19    22    1
    23    20    23   ar
    24    20    24    1
    25    21    25   ar
    26    21    26    1
    27    23    25   ar
    28    23    27    1
    29    25    28   un
    30    28    29   un
    31    28    30   un
    32    31    32    1
    33    31    33    1
    34    31    34    1
@<TRIPOS>SUBSTRUCTURE
     1 1           1 GROUP             0 ****  ****    0  
@<TRIPOS>MOLECULE
Molecule Name_00001_00001_00017
    34    34     1     0     0
SMALL
NO_CHARGES
****
Generated from the CSD

@<TRIPOS>ATOM
     1 C11      1.0570  -0.3893   0.5664   C.3       1 1      0.0000
     2 C12      1.8050   0.3326  -0.5502   C.3       1 1      0.0000
     3 H12A     1.6311   1.4116  -0.4591   H         1 1      0.0000
     4 C13      3.2802   0.0687  -0.5290   C.2       1 1      0.0000
     5 C14      3.7656  -1.2094  -1.1427   C.3       1 1      0.0000
     6 H14B     3.4795  -1.2309  -2.2016   H         1 1      0.0000
     7 H14A     3.2741  -2.0558  -0.6472   H         1 1      0.0000
     8 N        4.1210   0.9149   0.0308   N.pl3     1 1      0.0000
     9 HN       5.1062   0.6514   0.0237   H         1 1      0.0000
    10 C        3.8046   2.2425   0.5370   C.3       1 1      0.0000
    11 HC       4.6942   2.8685   0.5579   H         1 1      0.0000
    12 HB       3.0629   2.7308  -0.0914   H         1 1      0.0000
    13 HA       3.4074   2.1850   1.5483   H         1 1      0.0000
    14 H12B     1.3996   0.0109  -1.5175   H         1 1      0.0000
    15 O1       1.4563   0.1728   1.8137   O.3       1 1      0.0000
    16 H11      1.3333  -1.4549   0.5504   H         1 1      0.0000
    17 OH1      0.9929  -0.2980   2.5497   H         1 1      0.0000
    18 C10     -0.4408  -0.2690   0.3741   C.ar      1 1      0.0000
    19 C9      -1.3182  -0.9169   1.2332   C.ar      1 1      0.0000
    20 C5      -0.9616   0.4955  -0.6611   C.ar      1 1      0.0000
    21 C8      -2.6854  -0.8086   1.0651   C.ar      1 1      0.0000
    22 H9      -0.9249  -1.5163   2.0476   H         1 1      0.0000
    23 C6      -2.3269   0.6118  -0.8398   C.ar      1 1      0.0000
    24 H5      -0.2876   1.0087  -1.3389   H         1 1      0.0000
    25 C7      -3.1900  -0.0423   0.0257   C.ar      1 1      0.0000
    26 H8      -3.3605  -1.3204   1.7430   H         1 1      0.0000
    27 H6      -2.7213   1.2119  -1.6532   H         1 1      0.0000
    28 NO      -4.5089   0.0657  -0.1419   N.pl3     1 1      0.0000
    29 ON2     -4.9661   0.3999  -1.2640   O.2       1 1      0.0000
    30 ON1     -5.2780  -0.1680   0.8244   O.2       1 1      0.0000
    31 C15      5.2740  -1.3707  -1.0296   C.3       1 1      0.0000
    32 H15A     5.5843  -1.3749   0.0132   H         1 1      0.0000
    33 H15C     5.5969  -2.3055  -1.4830   H         1 1      0.0000
    34 H15B     5.7880  -0.5545  -1.5329   H         1 1      0.0000
@<TRIPOS>BOND
     1     1     2    1
     2     1    15    1
     3     1    16    1
     4     1    18    1
     5     2     3    1
     6     2     4    1
     7     2    14    1
     8     4     5    1
     9     4     8    2
    10     5     6    1
    11     5     7    1
    12     5    31    1
    13     8     9    1
    14     8    10    1
    15    10    11    1
    16    10    12    1
    17    10    13    1
    18    15    17    1
    19    18    19   ar
    20    18    20   ar
    21    19    21   ar
    22    19    22    1
    23    20    23   ar
    24    20    24    1
    25    21    25   ar
    26    21    26    1
    27    23    25   ar
    28    23    27    1
    29    25    28   un
    30    28    29   un
    31    28    30   un
    32    31    32    1
    33    31    33    1
    34    31    34    1
@<TRIPOS>SUBSTRUCTURE
     1 1           1 GROUP             0 ****  ****    0  
@<TRIPOS>MOLECULE
Molecule Name_00001_00001_00018
    34    34     1     0     0
SMALL
NO_CHARGES
****
Generated from the CSD

@<TRIPOS>ATOM
     1 C11      1.0376  -0.7158  -0.1400   C.3       1 1      0.0000
     2 C12      1.8532   0.4957   0.3010   C.3       1 1      0.0000
     3 H12A     1.6994   0.6600   1.3745   H         1 1      0.0000
     4 C13      3.3195   0.3404   0.0323   C.2       1 1      0.0000
     5 C14      4.1340  -0.4120   1.0404   C.3       1 1      0.0000
     6 H14B     3.7428  -1.4330   1.1287   H         1 1      0.0000
     7 H14A     4.0297   0.0711   2.0198   H         1 1      0.0000
     8 N        3.8808   0.8665  -1.0375   N.pl3     1 1      0.0000
     9 HN       4.8874   0.7355  -1.1359   H         1 1      0.0000
    10 C        3.1930   1.4977  -2.1543   C.3       1 1      0.0000
    11 HC       3.7615   1.3770  -3.0741   H         1 1      0.0000
    12 HB       2.2102   1.0562  -2.3044   H         1 1      0.0000
    13 HA       3.0625   2.5628  -1.9746   H         1 1      0.0000
    14 H12B     1.4865   1.3844  -0.2273   H         1 1      0.0000
    15 O1       1.3906  -1.8223   0.6859   O.3       1 1      0.0000
    16 H11      1.2903  -0.9552  -1.1845   H         1 1      0.0000
    17 OH1      0.8827  -2.6212   0.3998   H         1 1      0.0000
    18 C10     -0.4464  -0.4256  -0.0496   C.ar      1 1      0.0000
    19 C9      -1.3775  -1.3633  -0.4755   C.ar      1 1      0.0000
    20 C5      -0.9009   0.7808   0.4658   C.ar      1 1      0.0000
    21 C8      -2.7326  -1.1059  -0.3927   C.ar      1 1      0.0000
    22 H9      -1.0365  -2.3110  -0.8788   H         1 1      0.0000
    23 C6      -2.2533   1.0502   0.5539   C.ar      1 1      0.0000
    24 H5      -0.1844   1.5220   0.8040   H         1 1      0.0000
    25 C7      -3.1705   0.1041   0.1232   C.ar      1 1      0.0000
    26 H8      -3.4500  -1.8469  -0.7296   H         1 1      0.0000
    27 H6      -2.5955   1.9972   0.9581   H         1 1      0.0000
    28 NO      -4.4773   0.3585   0.2053   N.pl3     1 1      0.0000
    29 ON2     -4.8738   1.5489   0.2812   O.2       1 1      0.0000
    30 ON1     -5.2959  -0.5953   0.2058   O.2       1 1      0.0000
    31 C15      5.6074  -0.4723   0.6668   C.3       1 1      0.0000
    32 H15A     6.0280   0.5284   0.5935   H         1 1      0.0000
    33 H15C     6.1728  -1.0236   1.4152   H         1 1      0.0000
    34 H15B     5.7420  -0.9676  -0.2925   H         1 1      0.0000
@<TRIPOS>BOND
     1     1     2    1
     2     1    15    1
     3     1    16    1
     4     1    18    1
     5     2     3    1
     6     2     4    1
     7     2    14    1
     8     4     5    1
     9     4     8    2
    10     5     6    1
    11     5     7    1
    12     5    31    1
    13     8     9    1
    14     8    10    1
    15    10    11    1
    16    10    12    1
    17    10    13    1
    18    15    17    1
    19    18    19   ar
    20    18    20   ar
    21    19    21   ar
    22    19    22    1
    23    20    23   ar
    24    20    24    1
    25    21    25   ar
    26    21    26    1
    27    23    25   ar
    28    23    27    1
    29    25    28   un
    30    28    29   un
    31    28    30   un
    32    31    32    1
    33    31    33    1
    34    31    34    1
@<TRIPOS>SUBSTRUCTURE
     1 1           1 GROUP             0 ****  ****    0  
@<TRIPOS>MOLECULE
Molecule Name_00001_00001_00019
    34    34     1     0     0
SMALL
NO_CHARGES
****
Generated from the CSD

@<TRIPOS>ATOM
     1 C11      1.0570  -0.3868   0.5682   C.3       1 1      0.0000
     2 C12      1.8047   0.3345  -0.5489   C.3       1 1      0.0000
     3 H12A     1.6322   1.4137  -0.4572   H         1 1      0.0000
     4 C13      3.2796   0.0686  -0.5293   C.2       1 1      0.0000
     5 C14      3.7626  -1.2098  -1.1442   C.3       1 1      0.0000
     6 H14B     3.4754  -1.2305  -2.2027   H         1 1      0.0000
     7 H14A     3.2706  -2.0558  -0.6485   H         1 1      0.0000
     8 N        4.1220   0.9136   0.0298   N.pl3     1 1      0.0000
     9 HN       5.1069   0.6488   0.0216   H         1 1      0.0000
    10 C        3.8079   2.2414   0.5369   C.3       1 1      0.0000
    11 HC       4.6987   2.8656   0.5587   H         1 1      0.0000
    12 HB       3.0674   2.7316  -0.0914   H         1 1      0.0000
    13 HA       3.4102   2.1838   1.5480   H         1 1      0.0000
    14 H12B     1.3979   0.0137  -1.5159   H         1 1      0.0000
    15 O1       1.4592   0.1733   1.8154   O.3       1 1      0.0000
    16 H11      1.3311  -1.4530   0.5508   H         1 1      0.0000
    17 OH1      0.9960  -0.2971   2.5517   H         1 1      0.0000
    18 C10     -0.4409  -0.2635   0.3783   C.ar      1 1      0.0000
    19 C9      -0.9618   0.4989  -0.6585   C.ar      1 1      0.0000
    20 C5      -1.3182  -0.9153   1.2344   C.ar      1 1      0.0000
    21 C8      -2.3270   0.6128  -0.8390   C.ar      1 1      0.0000
    22 H9      -0.2877   1.0124  -1.3361   H         1 1      0.0000
    23 C6      -2.6854  -0.8095   1.0646   C.ar      1 1      0.0000
    24 H5      -0.9249  -1.5160   2.0479   H         1 1      0.0000
    25 C7      -3.1900  -0.0432   0.0252   C.ar      1 1      0.0000
    26 H8      -2.7214   1.2123  -1.6528   H         1 1      0.0000
    27 H6      -3.3604  -1.3233   1.7410   H         1 1      0.0000
    28 NO      -4.5089   0.0632  -0.1437   N.pl3     1 1      0.0000
    29 ON2     -5.2787  -0.1723   0.8217   O.2       1 1      0.0000
    30 ON1     -4.9653   0.3976  -1.2660   O.2       1 1      0.0000
    31 C15      5.2709  -1.3732  -1.0327   C.3       1 1      0.0000
    32 H15A     5.5823  -1.3782   0.0098   H         1 1      0.0000
    33 H15C     5.5922  -2.3082  -1.4869   H         1 1      0.0000
    34 H15B     5.7855  -0.5574  -1.5362   H         1 1      0.0000
@<TRIPOS>BOND
     1     1     2    1
     2     1    15    1
     3     1    16    1
     4     1    18    1
     5     2     3    1
     6     2     4    1
     7     2    14    1
     8     4     5    1
     9     4     8    2
    10     5     6    1
    11     5     7    1
    12     5    31    1
    13     8     9    1
    14     8    10    1
    15    10    11    1
    16    10    12    1
    17    10    13    1
    18    15    17    1
    19    18    19   ar
    20    18    20   ar
    21    19    21   ar
    22    19    22    1
    23    20    23   ar
    24    20    24    1
    25    21    25   ar
    26    21    26    1
    27    23    25   ar
    28    23    27    1
    29    25    28   un
    30    28    29   un
    31    28    30   un
    32    31    32    1
    33    31    33    1
    34    31    34    1
@<TRIPOS>SUBSTRUCTURE
     1 1           1 GROUP             0 ****  ****    0  
@<TRIPOS>MOLECULE
Molecule Name_00001_00001_00020
    34    34     1     0     0
SMALL
NO_CHARGES
****
Generated from the CSD

@<TRIPOS>ATOM
     1 C11      1.0377  -0.7175  -0.1356   C.3       1 1      0.0000
     2 C12      1.8531   0.4955   0.3018   C.3       1 1      0.0000
     3 H12A     1.7010   0.6616   1.3752   H         1 1      0.0000
     4 C13      3.3190   0.3408   0.0309   C.2       1 1      0.0000
     5 C14      4.1358  -0.4090   1.0390   C.3       1 1      0.0000
     6 H14B     3.7456  -1.4302   1.1299   H         1 1      0.0000
     7 H14A     4.0329   0.0758   2.0177   H         1 1      0.0000
     8 N        3.8782   0.8654  -1.0408   N.pl3     1 1      0.0000
     9 HN       4.8847   0.7349  -1.1407   H         1 1      0.0000
    10 C        3.1880   1.4939  -2.1577   C.3       1 1      0.0000
    11 HC       3.7550   1.3719  -3.0782   H         1 1      0.0000
    12 HB       2.2053   1.0514  -2.3053   H         1 1      0.0000
    13 HA       3.0570   2.5593  -1.9797   H         1 1      0.0000
    14 H12B     1.4849   1.3829  -0.2275   H         1 1      0.0000
    15 O1       1.3937  -1.8225   0.6910   O.3       1 1      0.0000
    16 H11      1.2882  -0.9581  -1.1804   H         1 1      0.0000
    17 OH1      0.8859  -2.6223   0.4072   H         1 1      0.0000
    18 C10     -0.4464  -0.4286  -0.0422   C.ar      1 1      0.0000
    19 C9      -0.9008   0.7800   0.4680   C.ar      1 1      0.0000
    20 C5      -1.3774  -1.3653  -0.4704   C.ar      1 1      0.0000
    21 C8      -2.2531   1.0508   0.5529   C.ar      1 1      0.0000
    22 H9      -0.1842   1.5219   0.8048   H         1 1      0.0000
    23 C6      -2.7324  -1.1066  -0.3908   C.ar      1 1      0.0000
    24 H5      -1.0363  -2.3134  -0.8729   H         1 1      0.0000
    25 C7      -3.1703   0.1046   0.1224   C.ar      1 1      0.0000
    26 H8      -2.5953   1.9990   0.9543   H         1 1      0.0000
    27 H6      -3.4498  -1.8474  -0.7282   H         1 1      0.0000
    28 NO      -4.4770   0.3600   0.2022   N.pl3     1 1      0.0000
    29 ON2     -5.2964  -0.5932   0.2030   O.2       1 1      0.0000
    30 ON1     -4.8728   1.5508   0.2754   O.2       1 1      0.0000
    31 C15      5.6086  -0.4689   0.6630   C.3       1 1      0.0000
    32 H15A     6.0284   0.5320   0.5872   H         1 1      0.0000
    33 H15C     6.1757  -1.0184   1.4115   H         1 1      0.0000
    34 H15B     5.7421  -0.9659  -0.2956   H         1 1      0.0000
@<TRIPOS>BOND
     1     1     2    1
     2     1    15    1
     3     1    16    1
     4     1    18    1
     5     2     3    1
     6     2     4    1
     7     2    14    1
     8     4     5    1
     9     4     8    2
    10     5     6    1
    11     5     7    1
    12     5    31    1
    13     8     9    1
    14     8    10    1
    15    10    11    1
    16    10    12    1
    17    10    13    1
    18    15    17    1
    19    18    19   ar
    20    18    20   ar
    21    19    21   ar
    22    19    22    1
    23    20    23   ar
    24    20    24    1
    25    21    25   ar
    26    21    26    1
    27    23    25   ar
    28    23    27    1
    29    25    28   un
    30    28    29   un
    31    28    30   un
    32    31    32    1
    33    31    33    1
    34    31    34    1
@<TRIPOS>SUBSTRUCTURE
     1 1           1 GROUP             0 ****  ****    0  
@<TRIPOS>MOLECULE
Molecule Name_00001_00001_00021
    34    34     1     0     0
SMALL
NO_CHARGES
****
Generated from the CSD

@<TRIPOS>ATOM
     1 C11      1.0554  -0.1394   0.7093   C.3       1 1      0.0000
     2 C12      1.8059   0.1452  -0.5881   C.3       1 1      0.0000
     3 H12A     1.6408   1.1907  -0.8759   H         1 1      0.0000
     4 C13      3.2790  -0.1075  -0.4767   C.2       1 1      0.0000
     5 C14      3.7165  -1.4244   0.0891   C.3       1 1      0.0000
     6 H14B     3.3274  -2.2335  -0.5413   H         1 1      0.0000
     7 H14A     3.2865  -1.5461   1.0910   H         1 1      0.0000
     8 N        4.1609   0.8024  -0.8383   N.pl3     1 1      0.0000
     9 HN       5.1437   0.5619  -0.7099   H         1 1      0.0000
    10 C        3.8803   2.0563  -1.5223   C.3       1 1      0.0000
    11 HC       4.7246   2.3547  -2.1403   H         1 1      0.0000
    12 HB       3.0082   1.9607  -2.1656   H         1 1      0.0000
    13 HA       3.6877   2.8518  -0.8056   H         1 1      0.0000
    14 H12B     1.3952  -0.4877  -1.3844   H         1 1      0.0000
    15 O1       1.4448   0.8307   1.6780   O.3       1 1      0.0000
    16 H11      1.3373  -1.1397   1.0727   H         1 1      0.0000
    17 OH1      0.9796   0.6480   2.5314   H         1 1      0.0000
    18 C10     -0.4419  -0.1053   0.4818   C.ar      1 1      0.0000
    19 C9      -1.0531  -1.0397  -0.3434   C.ar      1 1      0.0000
    20 C5      -1.2291   0.8575   1.0989   C.ar      1 1      0.0000
    21 C8      -2.4188  -1.0159  -0.5524   C.ar      1 1      0.0000
    22 H9      -0.4503  -1.7988  -0.8307   H         1 1      0.0000
    23 C6      -2.5958   0.8919   0.8980   C.ar      1 1      0.0000
    24 H5      -0.7649   1.5928   1.7477   H         1 1      0.0000
    25 C7      -3.1911  -0.0473   0.0701   C.ar      1 1      0.0000
    26 H8      -2.8843  -1.7514  -1.2002   H         1 1      0.0000
    27 H6      -3.1998   1.6500   1.3857   H         1 1      0.0000
    28 NO      -4.5098  -0.0190  -0.1281   N.pl3     1 1      0.0000
    29 ON2     -5.1462   1.0440   0.0841   O.2       1 1      0.0000
    30 ON1     -5.0997  -1.0557  -0.5245   O.2       1 1      0.0000
    31 C15      5.2305  -1.5436   0.1768   C.3       1 1      0.0000
    32 H15A     5.6424  -0.7648   0.8152   H         1 1      0.0000
    33 H15C     5.5181  -2.5081   0.5901   H         1 1      0.0000
    34 H15B     5.6825  -1.4486  -0.8083   H         1 1      0.0000
@<TRIPOS>BOND
     1     1     2    1
     2     1    15    1
     3     1    16    1
     4     1    18    1
     5     2     3    1
     6     2     4    1
     7     2    14    1
     8     4     5    1
     9     4     8    2
    10     5     6    1
    11     5     7    1
    12     5    31    1
    13     8     9    1
    14     8    10    1
    15    10    11    1
    16    10    12    1
    17    10    13    1
    18    15    17    1
    19    18    19   ar
    20    18    20   ar
    21    19    21   ar
    22    19    22    1
    23    20    23   ar
    24    20    24    1
    25    21    25   ar
    26    21    26    1
    27    23    25   ar
    28    23    27    1
    29    25    28   un
    30    28    29   un
    31    28    30   un
    32    31    32    1
    33    31    33    1
    34    31    34    1
@<TRIPOS>SUBSTRUCTURE
     1 1           1 GROUP             0 ****  ****    0  
@<TRIPOS>MOLECULE
Molecule Name_00001_00001_00022
    34    34     1     0     0
SMALL
NO_CHARGES
****
Generated from the CSD

@<TRIPOS>ATOM
     1 C11      1.0560  -0.1414   0.7128   C.3       1 1      0.0000
     2 C12      1.8037   0.1430  -0.5862   C.3       1 1      0.0000
     3 H12A     1.6367   1.1879  -0.8747   H         1 1      0.0000
     4 C13      3.2774  -0.1076  -0.4773   C.2       1 1      0.0000
     5 C14      3.7176  -1.4234   0.0889   C.3       1 1      0.0000
     6 H14B     3.3286  -2.2336  -0.5400   H         1 1      0.0000
     7 H14A     3.2897  -1.5447   1.0917   H         1 1      0.0000
     8 N        4.1574   0.8032  -0.8413   N.pl3     1 1      0.0000
     9 HN       5.1407   0.5641  -0.7145   H         1 1      0.0000
    10 C        3.8738   2.0560  -1.5260   C.3       1 1      0.0000
    11 HC       4.7165   2.3550  -2.1458   H         1 1      0.0000
    12 HB       3.0007   1.9587  -2.1675   H         1 1      0.0000
    13 HA       3.6814   2.8520  -0.8096   H         1 1      0.0000
    14 H12B     1.3924  -0.4912  -1.3812   H         1 1      0.0000
    15 O1       1.4458   0.8301   1.6799   O.3       1 1      0.0000
    16 H11      1.3399  -1.1411   1.0766   H         1 1      0.0000
    17 OH1      0.9824   0.6475   2.5343   H         1 1      0.0000
    18 C10     -0.4418  -0.1096   0.4880   C.ar      1 1      0.0000
    19 C9      -1.2284   0.8561   1.1012   C.ar      1 1      0.0000
    20 C5      -1.0525  -1.0422  -0.3395   C.ar      1 1      0.0000
    21 C8      -2.5947   0.8925   0.8976   C.ar      1 1      0.0000
    22 H9      -0.7641   1.5922   1.7491   H         1 1      0.0000
    23 C6      -2.4178  -1.0165  -0.5512   C.ar      1 1      0.0000
    24 H5      -0.4497  -1.8015  -0.8266   H         1 1      0.0000
    25 C7      -3.1899  -0.0466   0.0695   C.ar      1 1      0.0000
    26 H8      -3.1984   1.6520   1.3833   H         1 1      0.0000
    27 H6      -2.8831  -1.7515  -1.1997   H         1 1      0.0000
    28 NO      -4.5083  -0.0168  -0.1306   N.pl3     1 1      0.0000
    29 ON2     -5.0989  -1.0531  -0.5272   O.2       1 1      0.0000
    30 ON1     -5.1436   1.0471   0.0799   O.2       1 1      0.0000
    31 C15      5.2320  -1.5405   0.1739   C.3       1 1      0.0000
    32 H15A     5.6440  -0.7605   0.8109   H         1 1      0.0000
    33 H15C     5.5217  -2.5041   0.5876   H         1 1      0.0000
    34 H15B     5.6820  -1.4458  -0.8121   H         1 1      0.0000
@<TRIPOS>BOND
     1     1     2    1
     2     1    15    1
     3     1    16    1
     4     1    18    1
     5     2     3    1
     6     2     4    1
     7     2    14    1
     8     4     5    1
     9     4     8    2
    10     5     6    1
    11     5     7    1
    12     5    31    1
    13     8     9    1
    14     8    10    1
    15    10    11    1
    16    10    12    1
    17    10    13    1
    18    15    17    1
    19    18    19   ar
    20    18    20   ar
    21    19    21   ar
    22    19    22    1
    23    20    23   ar
    24    20    24    1
    25    21    25   ar
    26    21    26    1
    27    23    25   ar
    28    23    27    1
    29    25    28   un
    30    28    29   un
    31    28    30   un
    32    31    32    1
    33    31    33    1
    34    31    34    1
@<TRIPOS>SUBSTRUCTURE
     1 1           1 GROUP             0 ****  ****    0  
@<TRIPOS>MOLECULE
Molecule Name_00001_00001_00023
    34    34     1     0     0
SMALL
NO_CHARGES
****
Generated from the CSD

@<TRIPOS>ATOM
     1 C11      1.0311  -0.2344  -0.6732   C.3       1 1      0.0000
     2 C12      1.8589  -0.1284   0.6038   C.3       1 1      0.0000
     3 H12A     1.6801  -1.0166   1.2219   H         1 1      0.0000
     4 C13      3.3284  -0.0023   0.3371   C.2       1 1      0.0000
     5 C14      4.2028  -1.1619   0.7066   C.3       1 1      0.0000
     6 H14B     3.8788  -2.0487   0.1479   H         1 1      0.0000
     7 H14A     4.0811  -1.3781   1.7751   H         1 1      0.0000
     8 N        3.8405   1.0963  -0.1797   N.pl3     1 1      0.0000
     9 HN       4.8520   1.1112  -0.3091   H         1 1      0.0000
    10 C        3.0988   2.2331  -0.7054   C.3       1 1      0.0000
    11 HC       2.9455   2.1299  -1.7776   H         1 1      0.0000
    12 HB       2.1232   2.3129  -0.2310   H         1 1      0.0000
    13 HA       3.6389   3.1609  -0.5286   H         1 1      0.0000
    14 H12B     1.5243   0.7467   1.1746   H         1 1      0.0000
    15 O1       1.3219  -1.4823  -1.2972   O.3       1 1      0.0000
    16 H11      1.3196   0.5810  -1.3544   H         1 1      0.0000
    17 OH1      0.8057  -1.5579  -2.1374   H         1 1      0.0000
    18 C10     -0.4474  -0.1154  -0.3659   C.ar      1 1      0.0000
    19 C9      -0.9705   1.0645   0.1459   C.ar      1 1      0.0000
    20 C5      -1.3056  -1.1822  -0.5961   C.ar      1 1      0.0000
    21 C8      -2.3188   1.1805   0.4253   C.ar      1 1      0.0000
    22 H9      -0.3116   1.9068   0.3291   H         1 1      0.0000
    23 C6      -2.6558  -1.0788  -0.3209   C.ar      1 1      0.0000
    24 H5      -0.9107  -2.1096  -0.9975   H         1 1      0.0000
    25 C7      -3.1626   0.1056   0.1912   C.ar      1 1      0.0000
    26 H8      -2.7150   2.1078   0.8257   H         1 1      0.0000
    27 H6      -3.3158  -1.9202  -0.5047   H         1 1      0.0000
    28 NO      -4.4649   0.2114   0.4592   N.pl3     1 1      0.0000
    29 ON2     -5.1482  -0.8287   0.6358   O.2       1 1      0.0000
    30 ON1     -4.9927   1.3499   0.5317   O.2       1 1      0.0000
    31 C15      5.6718  -0.8966   0.4141   C.3       1 1      0.0000
    32 H15A     6.0267  -0.0334   0.9733   H         1 1      0.0000
    33 H15C     6.2813  -1.7541   0.6916   H         1 1      0.0000
    34 H15B     5.8249  -0.7006  -0.6451   H         1 1      0.0000
@<TRIPOS>BOND
     1     1     2    1
     2     1    15    1
     3     1    16    1
     4     1    18    1
     5     2     3    1
     6     2     4    1
     7     2    14    1
     8     4     5    1
     9     4     8    2
    10     5     6    1
    11     5     7    1
    12     5    31    1
    13     8     9    1
    14     8    10    1
    15    10    11    1
    16    10    12    1
    17    10    13    1
    18    15    17    1
    19    18    19   ar
    20    18    20   ar
    21    19    21   ar
    22    19    22    1
    23    20    23   ar
    24    20    24    1
    25    21    25   ar
    26    21    26    1
    27    23    25   ar
    28    23    27    1
    29    25    28   un
    30    28    29   un
    31    28    30   un
    32    31    32    1
    33    31    33    1
    34    31    34    1
@<TRIPOS>SUBSTRUCTURE
     1 1           1 GROUP             0 ****  ****    0  
@<TRIPOS>MOLECULE
Molecule Name_00001_00001_00024
    34    34     1     0     0
SMALL
NO_CHARGES
****
Generated from the CSD

@<TRIPOS>ATOM
     1 C11      1.0314  -0.2317  -0.6776   C.3       1 1      0.0000
     2 C12      1.8564  -0.1286   0.6015   C.3       1 1      0.0000
     3 H12A     1.6755  -1.0178   1.2176   H         1 1      0.0000
     4 C13      3.3265  -0.0032   0.3383   C.2       1 1      0.0000
     5 C14      4.1992  -1.1641   0.7077   C.3       1 1      0.0000
     6 H14B     3.8758  -2.0496   0.1467   H         1 1      0.0000
     7 H14A     4.0749  -1.3821   1.7756   H         1 1      0.0000
     8 N        3.8407   1.0959  -0.1754   N.pl3     1 1      0.0000
     9 HN       4.8525   1.1103  -0.3025   H         1 1      0.0000
    10 C        3.1011   2.2343  -0.7008   C.3       1 1      0.0000
    11 HC       2.9505   2.1333  -1.7736   H         1 1      0.0000
    12 HB       2.1242   2.3136  -0.2288   H         1 1      0.0000
    13 HA       3.6412   3.1614  -0.5206   H         1 1      0.0000
    14 H12B     1.5211   0.7457   1.1730   H         1 1      0.0000
    15 O1       1.3226  -1.4787  -1.3031   O.3       1 1      0.0000
    16 H11      1.3220   0.5847  -1.3567   H         1 1      0.0000
    17 OH1      0.8082  -1.5524  -2.1446   H         1 1      0.0000
    18 C10     -0.4478  -0.1121  -0.3734   C.ar      1 1      0.0000
    19 C9      -1.3053  -1.1797  -0.6021   C.ar      1 1      0.0000
    20 C5      -0.9702   1.0654   0.1444   C.ar      1 1      0.0000
    21 C8      -2.6550  -1.0780  -0.3237   C.ar      1 1      0.0000
    22 H9      -0.9104  -2.1065  -1.0049   H         1 1      0.0000
    23 C6      -2.3179   1.1798   0.4271   C.ar      1 1      0.0000
    24 H5      -0.3112   1.9072   0.3297   H         1 1      0.0000
    25 C7      -3.1616   0.1051   0.1919   C.ar      1 1      0.0000
    26 H8      -3.3147  -1.9195  -0.5076   H         1 1      0.0000
    27 H6      -2.7138   2.1058   0.8309   H         1 1      0.0000
    28 NO      -4.4635   0.2095   0.4623   N.pl3     1 1      0.0000
    29 ON2     -4.9918   1.3475   0.5383   O.2       1 1      0.0000
    30 ON1     -5.1459  -0.8315   0.6377   O.2       1 1      0.0000
    31 C15      5.6691  -0.8995   0.4190   C.3       1 1      0.0000
    32 H15A     6.0233  -0.0375   0.9805   H         1 1      0.0000
    33 H15C     6.2773  -1.7579   0.6964   H         1 1      0.0000
    34 H15B     5.8247  -0.7017  -0.6395   H         1 1      0.0000
@<TRIPOS>BOND
     1     1     2    1
     2     1    15    1
     3     1    16    1
     4     1    18    1
     5     2     3    1
     6     2     4    1
     7     2    14    1
     8     4     5    1
     9     4     8    2
    10     5     6    1
    11     5     7    1
    12     5    31    1
    13     8     9    1
    14     8    10    1
    15    10    11    1
    16    10    12    1
    17    10    13    1
    18    15    17    1
    19    18    19   ar
    20    18    20   ar
    21    19    21   ar
    22    19    22    1
    23    20    23   ar
    24    20    24    1
    25    21    25   ar
    26    21    26    1
    27    23    25   ar
    28    23    27    1
    29    25    28   un
    30    28    29   un
    31    28    30   un
    32    31    32    1
    33    31    33    1
    34    31    34    1
@<TRIPOS>SUBSTRUCTURE
     1 1           1 GROUP             0 ****  ****    0  
@<TRIPOS>MOLECULE
Molecule Name_00001_00001_00025
    34    34     1     0     0
SMALL
NO_CHARGES
****
Generated from the CSD

@<TRIPOS>ATOM
     1 C11      1.5103  -0.0359   1.5840   C.3       1 1      0.0000
     2 C12      2.4969   0.7191   0.6986   C.3       1 1      0.0000
     3 H12A     3.4686   0.7679   1.2050   H         1 1      0.0000
     4 C13      2.6753   0.0850  -0.6477   C.2       1 1      0.0000
     5 C14      3.6749  -1.0253  -0.7650   C.3       1 1      0.0000
     6 H14B     4.6040  -0.7268  -0.2641   H         1 1      0.0000
     7 H14A     3.9056  -1.1911  -1.8246   H         1 1      0.0000
     8 N        1.9983   0.5026  -1.6983   N.pl3     1 1      0.0000
     9 HN       2.1937   0.0341  -2.5828   H         1 1      0.0000
    10 C        0.9095   1.4687  -1.6986   C.3       1 1      0.0000
    11 HC      -0.0077   1.0147  -2.0679   H         1 1      0.0000
    12 HB       0.7210   1.8413  -0.6941   H         1 1      0.0000
    13 HA       1.1475   2.3176  -2.3361   H         1 1      0.0000
    14 H12B     2.1405   1.7477   0.5633   H         1 1      0.0000
    15 O1       1.5127   0.5648   2.8764   O.3       1 1      0.0000
    16 H11      1.8414  -1.0819   1.6760   H         1 1      0.0000
    17 OH1      0.8905   0.0741   3.4680   H         1 1      0.0000
    18 C10      0.1212  -0.0135   0.9801   C.ar      1 1      0.0000
    19 C9      -0.3159  -1.0552   0.1732   C.ar      1 1      0.0000
    20 C5      -0.7404   1.0465   1.2279   C.ar      1 1      0.0000
    21 C8      -1.5829  -1.0423  -0.3780   C.ar      1 1      0.0000
    22 H9       0.3465  -1.8909  -0.0275   H         1 1      0.0000
    23 C6      -2.0099   1.0714   0.6827   C.ar      1 1      0.0000
    24 H5      -0.4126   1.8666   1.8581   H         1 1      0.0000
    25 C7      -2.4311   0.0241  -0.1222   C.ar      1 1      0.0000
    26 H8      -1.9122  -1.8623  -1.0076   H         1 1      0.0000
    27 H6      -2.6735   1.9060   0.8835   H         1 1      0.0000
    28 NO      -3.6552   0.0425  -0.6517   N.pl3     1 1      0.0000
    29 ON2     -4.2645   1.1358  -0.7673   O.2       1 1      0.0000
    30 ON1     -4.1842  -1.0337  -1.0285   O.2       1 1      0.0000
    31 C15      3.1729  -2.3245  -0.1532   C.3       1 1      0.0000
    32 H15A     2.1454  -2.5202  -0.4529   H         1 1      0.0000
    33 H15C     3.7855  -3.1642  -0.4747   H         1 1      0.0000
    34 H15B     3.2059  -2.2772   0.9332   H         1 1      0.0000
@<TRIPOS>BOND
     1     1     2    1
     2     1    15    1
     3     1    16    1
     4     1    18    1
     5     2     3    1
     6     2     4    1
     7     2    14    1
     8     4     5    1
     9     4     8    2
    10     5     6    1
    11     5     7    1
    12     5    31    1
    13     8     9    1
    14     8    10    1
    15    10    11    1
    16    10    12    1
    17    10    13    1
    18    15    17    1
    19    18    19   ar
    20    18    20   ar
    21    19    21   ar
    22    19    22    1
    23    20    23   ar
    24    20    24    1
    25    21    25   ar
    26    21    26    1
    27    23    25   ar
    28    23    27    1
    29    25    28   un
    30    28    29   un
    31    28    30   un
    32    31    32    1
    33    31    33    1
    34    31    34    1
@<TRIPOS>SUBSTRUCTURE
     1 1           1 GROUP             0 ****  ****    0  
@<TRIPOS>MOLECULE
Molecule Name_00001_00001_00026
    34    34     1     0     0
SMALL
NO_CHARGES
****
Generated from the CSD

@<TRIPOS>ATOM
     1 C11      1.3883  -0.0826   1.6403   C.3       1 1      0.0000
     2 C12      2.4290   0.4980   0.6879   C.3       1 1      0.0000
     3 H12A     3.4083   0.4952   1.1819   H         1 1      0.0000
     4 C13      2.5264  -0.2599  -0.6014   C.2       1 1      0.0000
     5 C14      3.3442  -1.5157  -0.6083   C.3       1 1      0.0000
     6 H14B     3.1375  -2.0741  -1.5296   H         1 1      0.0000
     7 H14A     3.0434  -2.1454   0.2381   H         1 1      0.0000
     8 N        1.9369   0.1721  -1.6979   N.pl3     1 1      0.0000
     9 HN       2.0702  -0.3889  -2.5391   H         1 1      0.0000
    10 C        1.0105   1.2902  -1.7997   C.3       1 1      0.0000
    11 HC       0.1145   0.9992  -2.3440   H         1 1      0.0000
    12 HB       0.7089   1.6355  -0.8132   H         1 1      0.0000
    13 HA       1.4697   2.1248  -2.3254   H         1 1      0.0000
    14 H12B     2.1700   1.5413   0.4690   H         1 1      0.0000
    15 O1       1.4333   0.6525   2.8604   O.3       1 1      0.0000
    16 H11      1.6411  -1.1340   1.8475   H         1 1      0.0000
    17 OH1      0.7757   0.2754   3.4957   H         1 1      0.0000
    18 C10      0.0054  -0.0240   1.0247   C.ar      1 1      0.0000
    19 C9      -0.4983  -1.1046   0.3133   C.ar      1 1      0.0000
    20 C5      -0.7841   1.1093   1.1661   C.ar      1 1      0.0000
    21 C8      -1.7602  -1.0586  -0.2479   C.ar      1 1      0.0000
    22 H9       0.1072  -1.9973   0.1963   H         1 1      0.0000
    23 C6      -2.0476   1.1678   0.6097   C.ar      1 1      0.0000
    24 H5      -0.4038   1.9605   1.7210   H         1 1      0.0000
    25 C7      -2.5358   0.0808  -0.0990   C.ar      1 1      0.0000
    26 H8      -2.1419  -1.9097  -0.8021   H         1 1      0.0000
    27 H6      -2.6544   2.0596   0.7269   H         1 1      0.0000
    28 NO      -3.7545   0.1313  -0.6387   N.pl3     1 1      0.0000
    29 ON2     -4.2890   1.2473  -0.8599   O.2       1 1      0.0000
    30 ON1     -4.3533  -0.9376  -0.9194   O.2       1 1      0.0000
    31 C15      4.8367  -1.2360  -0.5180   C.3       1 1      0.0000
    32 H15A     5.0741  -0.7009   0.3990   H         1 1      0.0000
    33 H15C     5.4042  -2.1643  -0.5253   H         1 1      0.0000
    34 H15B     5.1672  -0.6302  -1.3592   H         1 1      0.0000
@<TRIPOS>BOND
     1     1     2    1
     2     1    15    1
     3     1    16    1
     4     1    18    1
     5     2     3    1
     6     2     4    1
     7     2    14    1
     8     4     5    1
     9     4     8    2
    10     5     6    1
    11     5     7    1
    12     5    31    1
    13     8     9    1
    14     8    10    1
    15    10    11    1
    16    10    12    1
    17    10    13    1
    18    15    17    1
    19    18    19   ar
    20    18    20   ar
    21    19    21   ar
    22    19    22    1
    23    20    23   ar
    24    20    24    1
    25    21    25   ar
    26    21    26    1
    27    23    25   ar
    28    23    27    1
    29    25    28   un
    30    28    29   un
    31    28    30   un
    32    31    32    1
    33    31    33    1
    34    31    34    1
@<TRIPOS>SUBSTRUCTURE
     1 1           1 GROUP             0 ****  ****    0  
@<TRIPOS>MOLECULE
Molecule Name_00001_00001_00027
    34    34     1     0     0
SMALL
NO_CHARGES
****
Generated from the CSD

@<TRIPOS>ATOM
     1 C11      1.2533   1.2903   1.1732   C.3       1 1      0.0000
     2 C12      2.3163   1.0860   0.0982   C.3       1 1      0.0000
     3 H12A     3.2572   1.5392   0.4336   H         1 1      0.0000
     4 C13      2.5527  -0.3592  -0.2206   C.2       1 1      0.0000
     5 C14      1.7042  -0.9825  -1.2870   C.3       1 1      0.0000
     6 H14B     0.6567  -0.7010  -1.1231   H         1 1      0.0000
     7 H14A     1.7723  -2.0746  -1.2084   H         1 1      0.0000
     8 N        3.4553  -1.0667   0.4285   N.pl3     1 1      0.0000
     9 HN       3.5391  -2.0490   0.1677   H         1 1      0.0000
    10 C        4.4314  -0.5593   1.3817   C.3       1 1      0.0000
    11 HC       5.3040  -1.2081   1.4210   H         1 1      0.0000
    12 HB       4.7645   0.4379   1.1024   H         1 1      0.0000
    13 HA       4.0035  -0.5067   2.3807   H         1 1      0.0000
    14 H12B     2.0042   1.6059  -0.8159   H         1 1      0.0000
    15 O1       1.1558   2.6845   1.4523   O.3       1 1      0.0000
    16 H11      1.5654   0.7641   2.0885   H         1 1      0.0000
    17 OH1      0.4825   2.8314   2.1617   H         1 1      0.0000
    18 C10     -0.0815   0.7351   0.7205   C.ar      1 1      0.0000
    19 C9      -0.4842  -0.5375   1.1024   C.ar      1 1      0.0000
    20 C5      -0.9273   1.4916  -0.0794   C.ar      1 1      0.0000
    21 C8      -1.7018  -1.0484   0.6954   C.ar      1 1      0.0000
    22 H9       0.1661  -1.1391   1.7288   H         1 1      0.0000
    23 C6      -2.1475   0.9922  -0.4930   C.ar      1 1      0.0000
    24 H5      -0.6261   2.4885  -0.3840   H         1 1      0.0000
    25 C7      -2.5347  -0.2811  -0.1043   C.ar      1 1      0.0000
    26 H8      -2.0046  -2.0447   1.0002   H         1 1      0.0000
    27 H6      -2.7991   1.5932  -1.1186   H         1 1      0.0000
    28 NO      -3.7112  -0.7689  -0.5006   N.pl3     1 1      0.0000
    29 ON2     -4.2754  -0.2816  -1.5127   O.2       1 1      0.0000
    30 ON1     -4.2409  -1.7097   0.1429   O.2       1 1      0.0000
    31 C15      2.1233  -0.5546  -2.6853   C.3       1 1      0.0000
    32 H15A     3.1539  -0.8414  -2.8837   H         1 1      0.0000
    33 H15C     1.4908  -1.0216  -3.4374   H         1 1      0.0000
    34 H15B     2.0440   0.5246  -2.7984   H         1 1      0.0000
@<TRIPOS>BOND
     1     1     2    1
     2     1    15    1
     3     1    16    1
     4     1    18    1
     5     2     3    1
     6     2     4    1
     7     2    14    1
     8     4     5    1
     9     4     8    2
    10     5     6    1
    11     5     7    1
    12     5    31    1
    13     8     9    1
    14     8    10    1
    15    10    11    1
    16    10    12    1
    17    10    13    1
    18    15    17    1
    19    18    19   ar
    20    18    20   ar
    21    19    21   ar
    22    19    22    1
    23    20    23   ar
    24    20    24    1
    25    21    25   ar
    26    21    26    1
    27    23    25   ar
    28    23    27    1
    29    25    28   un
    30    28    29   un
    31    28    30   un
    32    31    32    1
    33    31    33    1
    34    31    34    1
@<TRIPOS>SUBSTRUCTURE
     1 1           1 GROUP             0 ****  ****    0  
@<TRIPOS>MOLECULE
Molecule Name_00001_00001_00028
    34    34     1     0     0
SMALL
NO_CHARGES
****
Generated from the CSD

@<TRIPOS>ATOM
     1 C11      1.5118  -0.0347   1.5852   C.3       1 1      0.0000
     2 C12      2.4949   0.7206   0.6962   C.3       1 1      0.0000
     3 H12A     3.4677   0.7721   1.2003   H         1 1      0.0000
     4 C13      2.6713   0.0846  -0.6494   C.2       1 1      0.0000
     5 C14      3.6731  -1.0237  -0.7673   C.3       1 1      0.0000
     6 H14B     4.6029  -0.7222  -0.2693   H         1 1      0.0000
     7 H14A     3.9014  -1.1909  -1.8271   H         1 1      0.0000
     8 N        1.9908   0.4988  -1.6990   N.pl3     1 1      0.0000
     9 HN       2.1851   0.0292  -2.5832   H         1 1      0.0000
    10 C        0.8999   1.4626  -1.6983   C.3       1 1      0.0000
    11 HC      -0.0181   1.0048  -2.0609   H         1 1      0.0000
    12 HB       0.7156   1.8394  -0.6945   H         1 1      0.0000
    13 HA       1.1328   2.3090  -2.3409   H         1 1      0.0000
    14 H12B     2.1362   1.7484   0.5600   H         1 1      0.0000
    15 O1       1.5168   0.5677   2.8768   O.3       1 1      0.0000
    16 H11      1.8446  -1.0801   1.6777   H         1 1      0.0000
    17 OH1      0.8969   0.0767   3.4708   H         1 1      0.0000
    18 C10      0.1211  -0.0150   0.9850   C.ar      1 1      0.0000
    19 C9      -0.7399   1.0461   1.2303   C.ar      1 1      0.0000
    20 C5      -0.3142  -1.0552   0.1750   C.ar      1 1      0.0000
    21 C8      -2.0085   1.0715   0.6832   C.ar      1 1      0.0000
    22 H9      -0.4122   1.8666   1.8601   H         1 1      0.0000
    23 C6      -1.5804  -1.0417  -0.3780   C.ar      1 1      0.0000
    24 H5       0.3488  -1.8901  -0.0264   H         1 1      0.0000
    25 C7      -2.4290   0.0246  -0.1226   C.ar      1 1      0.0000
    26 H8      -2.6721   1.9063   0.8831   H         1 1      0.0000
    27 H6      -1.9088  -1.8611  -1.0089   H         1 1      0.0000
    28 NO      -3.6525   0.0432  -0.6533   N.pl3     1 1      0.0000
    29 ON2     -4.1811  -1.0328  -1.0311   O.2       1 1      0.0000
    30 ON1     -4.2617   1.1366  -0.7690   O.2       1 1      0.0000
    31 C15      3.1756  -2.3228  -0.1517   C.3       1 1      0.0000
    32 H15A     2.1479  -2.5216  -0.4486   H         1 1      0.0000
    33 H15C     3.7895  -3.1617  -0.4730   H         1 1      0.0000
    34 H15B     3.2110  -2.2733   0.9346   H         1 1      0.0000
@<TRIPOS>BOND
     1     1     2    1
     2     1    15    1
     3     1    16    1
     4     1    18    1
     5     2     3    1
     6     2     4    1
     7     2    14    1
     8     4     5    1
     9     4     8    2
    10     5     6    1
    11     5     7    1
    12     5    31    1
    13     8     9    1
    14     8    10    1
    15    10    11    1
    16    10    12    1
    17    10    13    1
    18    15    17    1
    19    18    19   ar
    20    18    20   ar
    21    19    21   ar
    22    19    22    1
    23    20    23   ar
    24    20    24    1
    25    21    25   ar
    26    21    26    1
    27    23    25   ar
    28    23    27    1
    29    25    28   un
    30    28    29   un
    31    28    30   un
    32    31    32    1
    33    31    33    1
    34    31    34    1
@<TRIPOS>SUBSTRUCTURE
     1 1           1 GROUP             0 ****  ****    0  
@<TRIPOS>MOLECULE
Molecule Name_00001_00001_00029
    34    34     1     0     0
SMALL
NO_CHARGES
****
Generated from the CSD

@<TRIPOS>ATOM
     1 C11      1.3897  -0.0810   1.6423   C.3       1 1      0.0000
     2 C12      2.4272   0.4995   0.6864   C.3       1 1      0.0000
     3 H12A     3.4076   0.4992   1.1781   H         1 1      0.0000
     4 C13      2.5228  -0.2607  -0.6018   C.2       1 1      0.0000
     5 C14      3.3420  -1.5155  -0.6081   C.3       1 1      0.0000
     6 H14B     3.1341  -2.0758  -1.5279   H         1 1      0.0000
     7 H14A     3.0437  -2.1441   0.2401   H         1 1      0.0000
     8 N        1.9306   0.1687  -1.6978   N.pl3     1 1      0.0000
     9 HN       2.0628  -0.3937  -2.5383   H         1 1      0.0000
    10 C        1.0026   1.2856  -1.7998   C.3       1 1      0.0000
    11 HC       0.1057   0.9923  -2.3412   H         1 1      0.0000
    12 HB       0.7031   1.6325  -0.8132   H         1 1      0.0000
    13 HA       1.4596   2.1195  -2.3283   H         1 1      0.0000
    14 H12B     2.1660   1.5419   0.4661   H         1 1      0.0000
    15 O1       1.4370   0.6558   2.8613   O.3       1 1      0.0000
    16 H11      1.6443  -1.1318   1.8503   H         1 1      0.0000
    17 OH1      0.7816   0.2788   3.4988   H         1 1      0.0000
    18 C10      0.0051  -0.0249   1.0302   C.ar      1 1      0.0000
    19 C9      -0.7836   1.1092   1.1685   C.ar      1 1      0.0000
    20 C5      -0.4965  -1.1045   0.3158   C.ar      1 1      0.0000
    21 C8      -2.0461   1.1679   0.6098   C.ar      1 1      0.0000
    22 H9      -0.4036   1.9611   1.7227   H         1 1      0.0000
    23 C6      -1.7573  -1.0583  -0.2477   C.ar      1 1      0.0000
    24 H5       0.1098  -1.9966   0.1984   H         1 1      0.0000
    25 C7      -2.5333   0.0810  -0.0996   C.ar      1 1      0.0000
    26 H8      -2.6529   2.0599   0.7257   H         1 1      0.0000
    27 H6      -2.1380  -1.9091  -0.8031   H         1 1      0.0000
    28 NO      -3.7514   0.1315  -0.6409   N.pl3     1 1      0.0000
    29 ON2     -4.3497  -0.9375  -0.9224   O.2       1 1      0.0000
    30 ON1     -4.2856   1.2474  -0.8626   O.2       1 1      0.0000
    31 C15      4.8344  -1.2340  -0.5214   C.3       1 1      0.0000
    32 H15A     5.0731  -0.6969   0.3942   H         1 1      0.0000
    33 H15C     5.4029  -2.1616  -0.5282   H         1 1      0.0000
    34 H15B     5.1624  -0.6293  -1.3643   H         1 1      0.0000
@<TRIPOS>BOND
     1     1     2    1
     2     1    15    1
     3     1    16    1
     4     1    18    1
     5     2     3    1
     6     2     4    1
     7     2    14    1
     8     4     5    1
     9     4     8    2
    10     5     6    1
    11     5     7    1
    12     5    31    1
    13     8     9    1
    14     8    10    1
    15    10    11    1
    16    10    12    1
    17    10    13    1
    18    15    17    1
    19    18    19   ar
    20    18    20   ar
    21    19    21   ar
    22    19    22    1
    23    20    23   ar
    24    20    24    1
    25    21    25   ar
    26    21    26    1
    27    23    25   ar
    28    23    27    1
    29    25    28   un
    30    28    29   un
    31    28    30   un
    32    31    32    1
    33    31    33    1
    34    31    34    1
@<TRIPOS>SUBSTRUCTURE
     1 1           1 GROUP             0 ****  ****    0  
@<TRIPOS>MOLECULE
Molecule Name_00001_00001_00030
    34    34     1     0     0
SMALL
NO_CHARGES
****
Generated from the CSD

@<TRIPOS>ATOM
     1 C11      1.2546   1.2906   1.1770   C.3       1 1      0.0000
     2 C12      2.3149   1.0861   0.0995   C.3       1 1      0.0000
     3 H12A     3.2572   1.5372   0.4334   H         1 1      0.0000
     4 C13      2.5481  -0.3591  -0.2219   C.2       1 1      0.0000
     5 C14      1.6971  -0.9792  -1.2881   C.3       1 1      0.0000
     6 H14B     0.6504  -0.6955  -1.1227   H         1 1      0.0000
     7 H14A     1.7628  -2.0715  -1.2110   H         1 1      0.0000
     8 N        3.4502  -1.0692   0.4249   N.pl3     1 1      0.0000
     9 HN       3.5319  -2.0514   0.1625   H         1 1      0.0000
    10 C        4.4286  -0.5652   1.3776   C.3       1 1      0.0000
    11 HC       5.3004  -1.2151   1.4140   H         1 1      0.0000
    12 HB       4.7624   0.4323   1.1001   H         1 1      0.0000
    13 HA       4.0024  -0.5143   2.3774   H         1 1      0.0000
    14 H12B     2.0016   1.6078  -0.8133   H         1 1      0.0000
    15 O1       1.1592   2.6847   1.4575   O.3       1 1      0.0000
    16 H11      1.5682   0.7633   2.0912   H         1 1      0.0000
    17 OH1      0.4877   2.8317   2.1685   H         1 1      0.0000
    18 C10     -0.0818   0.7372   0.7270   C.ar      1 1      0.0000
    19 C9      -0.9259   1.4928  -0.0757   C.ar      1 1      0.0000
    20 C5      -0.4829  -0.5370   1.1049   C.ar      1 1      0.0000
    21 C8      -2.1447   0.9925  -0.4922   C.ar      1 1      0.0000
    22 H9      -0.6244   2.4896  -0.3800   H         1 1      0.0000
    23 C6      -1.6993  -1.0488   0.6951   C.ar      1 1      0.0000
    24 H5       0.1675  -1.1392   1.7307   H         1 1      0.0000
    25 C7      -2.5315  -0.2814  -0.1052   C.ar      1 1      0.0000
    26 H8      -2.7956   1.5933  -1.1188   H         1 1      0.0000
    27 H6      -2.0014  -2.0459   0.9979   H         1 1      0.0000
    28 NO      -3.7071  -0.7697  -0.5038   N.pl3     1 1      0.0000
    29 ON2     -4.2371  -1.7115   0.1381   O.2       1 1      0.0000
    30 ON1     -4.2701  -0.2819  -1.5162   O.2       1 1      0.0000
    31 C15      2.1156  -0.5505  -2.6864   C.3       1 1      0.0000
    32 H15A     3.1454  -0.8393  -2.8863   H         1 1      0.0000
    33 H15C     1.4812  -1.0151  -3.4383   H         1 1      0.0000
    34 H15B     2.0386   0.5290  -2.7980   H         1 1      0.0000
@<TRIPOS>BOND
     1     1     2    1
     2     1    15    1
     3     1    16    1
     4     1    18    1
     5     2     3    1
     6     2     4    1
     7     2    14    1
     8     4     5    1
     9     4     8    2
    10     5     6    1
    11     5     7    1
    12     5    31    1
    13     8     9    1
    14     8    10    1
    15    10    11    1
    16    10    12    1
    17    10    13    1
    18    15    17    1
    19    18    19   ar
    20    18    20   ar
    21    19    21   ar
    22    19    22    1
    23    20    23   ar
    24    20    24    1
    25    21    25   ar
    26    21    26    1
    27    23    25   ar
    28    23    27    1
    29    25    28   un
    30    28    29   un
    31    28    30   un
    32    31    32    1
    33    31    33    1
    34    31    34    1
@<TRIPOS>SUBSTRUCTURE
     1 1           1 GROUP             0 ****  ****    0  
@<TRIPOS>MOLECULE
Molecule Name_00001_00001_00031
    34    34     1     0     0
SMALL
NO_CHARGES
****
Generated from the CSD

@<TRIPOS>ATOM
     1 C11      1.1550   0.0841  -0.5933   C.3       1 1      0.0000
     2 C12      1.9300  -0.1636   0.6972   C.3       1 1      0.0000
     3 H12A     1.7660  -1.1987   1.0209   H         1 1      0.0000
     4 C13      3.4017   0.0780   0.5488   C.2       1 1      0.0000
     5 C14      4.3098  -1.1127   0.6061   C.3       1 1      0.0000
     6 H14B     4.0301  -1.7370   1.4637   H         1 1      0.0000
     7 H14A     5.3405  -0.7717   0.7639   H         1 1      0.0000
     8 N        3.8859   1.2943   0.3989   N.pl3     1 1      0.0000
     9 HN       4.9000   1.3762   0.3277   H         1 1      0.0000
    10 C        3.1171   2.5129   0.1919   C.3       1 1      0.0000
    11 HC       3.0159   2.7284  -0.8697   H         1 1      0.0000
    12 HB       2.1189   2.4182   0.6138   H         1 1      0.0000
    13 HA       3.6060   3.3622   0.6646   H         1 1      0.0000
    14 H12B     1.5380   0.4960   1.4812   H         1 1      0.0000
    15 O1       1.5208  -0.9177  -1.5387   O.3       1 1      0.0000
    16 H11      1.4340   1.0712  -0.9934   H         1 1      0.0000
    17 OH1      1.0395  -0.7594  -2.3881   H         1 1      0.0000
    18 C10     -0.3375   0.0646  -0.3353   C.ar      1 1      0.0000
    19 C9      -1.0289   1.2442  -0.0941   C.ar      1 1      0.0000
    20 C5      -1.0406  -1.1326  -0.3412   C.ar      1 1      0.0000
    21 C8      -2.3909   1.2334   0.1387   C.ar      1 1      0.0000
    22 H9      -0.4924   2.1873  -0.0883   H         1 1      0.0000
    23 C6      -2.4026  -1.1567  -0.1098   C.ar      1 1      0.0000
    24 H5      -0.5133  -2.0618  -0.5301   H         1 1      0.0000
    25 C7      -3.0785   0.0296   0.1309   C.ar      1 1      0.0000
    26 H8      -2.9194   2.1622   0.3266   H         1 1      0.0000
    27 H6      -2.9403  -2.0991  -0.1164   H         1 1      0.0000
    28 NO      -4.3932   0.0127   0.3553   N.pl3     1 1      0.0000
    29 ON2     -4.9425  -1.0492   0.7430   O.2       1 1      0.0000
    30 ON1     -5.0663   1.0591   0.1763   O.2       1 1      0.0000
    31 C15      4.2486  -1.9501  -0.6623   C.3       1 1      0.0000
    32 H15A     3.9250  -1.3465  -1.5077   H         1 1      0.0000
    33 H15C     5.2260  -2.3663  -0.8973   H         1 1      0.0000
    34 H15B     3.5481  -2.7746  -0.5467   H         1 1      0.0000
@<TRIPOS>BOND
     1     1     2    1
     2     1    15    1
     3     1    16    1
     4     1    18    1
     5     2     3    1
     6     2     4    1
     7     2    14    1
     8     4     5    1
     9     4     8    2
    10     5     6    1
    11     5     7    1
    12     5    31    1
    13     8     9    1
    14     8    10    1
    15    10    11    1
    16    10    12    1
    17    10    13    1
    18    15    17    1
    19    18    19   ar
    20    18    20   ar
    21    19    21   ar
    22    19    22    1
    23    20    23   ar
    24    20    24    1
    25    21    25   ar
    26    21    26    1
    27    23    25   ar
    28    23    27    1
    29    25    28   un
    30    28    29   un
    31    28    30   un
    32    31    32    1
    33    31    33    1
    34    31    34    1
@<TRIPOS>SUBSTRUCTURE
     1 1           1 GROUP             0 ****  ****    0  
@<TRIPOS>MOLECULE
Molecule Name_00001_00001_00032
    34    34     1     0     0
SMALL
NO_CHARGES
****
Generated from the CSD

@<TRIPOS>ATOM
     1 C11      1.1554   0.0850  -0.5971   C.3       1 1      0.0000
     2 C12      1.9271  -0.1639   0.6952   C.3       1 1      0.0000
     3 H12A     1.7620  -1.1992   1.0177   H         1 1      0.0000
     4 C13      3.3992   0.0774   0.5507   C.2       1 1      0.0000
     5 C14      4.3069  -1.1135   0.6094   C.3       1 1      0.0000
     6 H14B     4.0249  -1.7384   1.4657   H         1 1      0.0000
     7 H14A     5.3372  -0.7730   0.7699   H         1 1      0.0000
     8 N        3.8842   1.2937   0.4028   N.pl3     1 1      0.0000
     9 HN       4.8984   1.3754   0.3341   H         1 1      0.0000
    10 C        3.1161   2.5126   0.1948   C.3       1 1      0.0000
    11 HC       3.0177   2.7289  -0.8669   H         1 1      0.0000
    12 HB       2.1169   2.4180   0.6142   H         1 1      0.0000
    13 HA       3.6041   3.3615   0.6693   H         1 1      0.0000
    14 H12B     1.5334   0.4953   1.4787   H         1 1      0.0000
    15 O1       1.5232  -0.9162  -1.5422   O.3       1 1      0.0000
    16 H11      1.4356   1.0723  -0.9957   H         1 1      0.0000
    17 OH1      1.0441  -0.7572  -2.3927   H         1 1      0.0000
    18 C10     -0.3378   0.0657  -0.3428   C.ar      1 1      0.0000
    19 C9      -1.0402  -1.1319  -0.3457   C.ar      1 1      0.0000
    20 C5      -1.0285   1.2447  -0.0969   C.ar      1 1      0.0000
    21 C8      -2.4017  -1.1566  -0.1113   C.ar      1 1      0.0000
    22 H9      -0.5128  -2.0611  -0.5348   H         1 1      0.0000
    23 C6      -2.3900   1.2335   0.1390   C.ar      1 1      0.0000
    24 H5      -0.4919   2.1877  -0.0899   H         1 1      0.0000
    25 C7      -3.0774   0.0295   0.1314   C.ar      1 1      0.0000
    26 H8      -2.9392  -2.0991  -0.1170   H         1 1      0.0000
    27 H6      -2.9182   2.1619   0.3292   H         1 1      0.0000
    28 NO      -4.3917   0.0122   0.3580   N.pl3     1 1      0.0000
    29 ON2     -5.0654   1.0585   0.1809   O.2       1 1      0.0000
    30 ON1     -4.9402  -1.0502   0.7458   O.2       1 1      0.0000
    31 C15      4.2485  -1.9501  -0.6599   C.3       1 1      0.0000
    32 H15A     3.9273  -1.3458  -1.5056   H         1 1      0.0000
    33 H15C     5.2264  -2.3663  -0.8927   H         1 1      0.0000
    34 H15B     3.5476  -2.7744  -0.5466   H         1 1      0.0000
@<TRIPOS>BOND
     1     1     2    1
     2     1    15    1
     3     1    16    1
     4     1    18    1
     5     2     3    1
     6     2     4    1
     7     2    14    1
     8     4     5    1
     9     4     8    2
    10     5     6    1
    11     5     7    1
    12     5    31    1
    13     8     9    1
    14     8    10    1
    15    10    11    1
    16    10    12    1
    17    10    13    1
    18    15    17    1
    19    18    19   ar
    20    18    20   ar
    21    19    21   ar
    22    19    22    1
    23    20    23   ar
    24    20    24    1
    25    21    25   ar
    26    21    26    1
    27    23    25   ar
    28    23    27    1
    29    25    28   un
    30    28    29   un
    31    28    30   un
    32    31    32    1
    33    31    33    1
    34    31    34    1
@<TRIPOS>SUBSTRUCTURE
     1 1           1 GROUP             0 ****  ****    0  
@<TRIPOS>MOLECULE
Molecule Name_00001_00001_00033
    34    34     1     0     0
SMALL
NO_CHARGES
****
Generated from the CSD

@<TRIPOS>ATOM
     1 C11      1.0445  -0.5778   0.4919   C.3       1 1      0.0000
     2 C12      1.8009   0.1037  -0.6443   C.3       1 1      0.0000
     3 H12A     1.4923   1.1547  -0.7008   H         1 1      0.0000
     4 C13      3.2887   0.0363  -0.4767   C.2       1 1      0.0000
     5 C14      3.8949  -1.3039  -0.1900   C.3       1 1      0.0000
     6 H14B     3.6619  -1.9878  -1.0155   H         1 1      0.0000
     7 H14A     3.4436  -1.7152   0.7214   H         1 1      0.0000
     8 N        4.0378   1.1177  -0.5527   N.pl3     1 1      0.0000
     9 HN       5.0389   0.9908  -0.4047   H         1 1      0.0000
    10 C        3.6015   2.4465  -0.9561   C.3       1 1      0.0000
    11 HC       4.4177   2.9946  -1.4221   H         1 1      0.0000
    12 HB       2.7839   2.3861  -1.6712   H         1 1      0.0000
    13 HA       3.2582   3.0173  -0.0958   H         1 1      0.0000
    14 H12B     1.5273  -0.3747  -1.5928   H         1 1      0.0000
    15 O1       1.5078  -0.0412   1.7282   O.3       1 1      0.0000
    16 H11      1.2607  -1.6571   0.4678   H         1 1      0.0000
    17 OH1      1.0390  -0.4870   2.4762   H         1 1      0.0000
    18 C10     -0.4490  -0.3744   0.3403   C.ar      1 1      0.0000
    19 C9      -1.3104  -1.4625   0.3008   C.ar      1 1      0.0000
    20 C5      -0.9823   0.9038   0.2439   C.ar      1 1      0.0000
    21 C8      -2.6739  -1.2835   0.1659   C.ar      1 1      0.0000
    22 H9      -0.9074  -2.4670   0.3768   H         1 1      0.0000
    23 C6      -2.3440   1.0961   0.1087   C.ar      1 1      0.0000
    24 H5      -0.3210   1.7634   0.2750   H         1 1      0.0000
    25 C7      -3.1909  -0.0008   0.0695   C.ar      1 1      0.0000
    26 H8      -3.3363  -2.1423   0.1357   H         1 1      0.0000
    27 H6      -2.7482   2.1003   0.0337   H         1 1      0.0000
    28 NO      -4.5062   0.1784  -0.0612   N.pl3     1 1      0.0000
    29 ON2     -4.9407   1.2560  -0.5407   O.2       1 1      0.0000
    30 ON1     -5.2948  -0.7326   0.2969   O.2       1 1      0.0000
    31 C15      5.4039  -1.2317  -0.0121   C.3       1 1      0.0000
    32 H15A     5.6637  -0.5757   0.8161   H         1 1      0.0000
    33 H15C     5.8156  -2.2174   0.1942   H         1 1      0.0000
    34 H15B     5.8803  -0.8470  -0.9115   H         1 1      0.0000
@<TRIPOS>BOND
     1     1     2    1
     2     1    15    1
     3     1    16    1
     4     1    18    1
     5     2     3    1
     6     2     4    1
     7     2    14    1
     8     4     5    1
     9     4     8    2
    10     5     6    1
    11     5     7    1
    12     5    31    1
    13     8     9    1
    14     8    10    1
    15    10    11    1
    16    10    12    1
    17    10    13    1
    18    15    17    1
    19    18    19   ar
    20    18    20   ar
    21    19    21   ar
    22    19    22    1
    23    20    23   ar
    24    20    24    1
    25    21    25   ar
    26    21    26    1
    27    23    25   ar
    28    23    27    1
    29    25    28   un
    30    28    29   un
    31    28    30   un
    32    31    32    1
    33    31    33    1
    34    31    34    1
@<TRIPOS>SUBSTRUCTURE
     1 1           1 GROUP             0 ****  ****    0  
@<TRIPOS>MOLECULE
Molecule Name_00001_00001_00034
    34    34     1     0     0
SMALL
NO_CHARGES
****
Generated from the CSD

@<TRIPOS>ATOM
     1 C11      1.0449  -0.5775   0.4963   C.3       1 1      0.0000
     2 C12      1.7987   0.1037  -0.6417   C.3       1 1      0.0000
     3 H12A     1.4901   1.1547  -0.6978   H         1 1      0.0000
     4 C13      3.2870   0.0362  -0.4776   C.2       1 1      0.0000
     5 C14      3.8936  -1.3040  -0.1919   C.3       1 1      0.0000
     6 H14B     3.6587  -1.9880  -1.0167   H         1 1      0.0000
     7 H14A     3.4444  -1.7151   0.7206   H         1 1      0.0000
     8 N        4.0359   1.1176  -0.5555   N.pl3     1 1      0.0000
     9 HN       5.0373   0.9906  -0.4097   H         1 1      0.0000
    10 C        3.5987   2.4463  -0.9582   C.3       1 1      0.0000
    11 HC       4.4140   2.9942  -1.4261   H         1 1      0.0000
    12 HB       2.7795   2.3858  -1.6713   H         1 1      0.0000
    13 HA       3.2575   3.0173  -0.0972   H         1 1      0.0000
    14 H12B     1.5229  -0.3749  -1.5895   H         1 1      0.0000
    15 O1       1.5111  -0.0407   1.7314   O.3       1 1      0.0000
    16 H11      1.2610  -1.6568   0.4720   H         1 1      0.0000
    17 OH1      1.0440  -0.4863   2.4807   H         1 1      0.0000
    18 C10     -0.4489  -0.3740   0.3481   C.ar      1 1      0.0000
    19 C9      -0.9819   0.9040   0.2471   C.ar      1 1      0.0000
    20 C5      -1.3099  -1.4623   0.3052   C.ar      1 1      0.0000
    21 C8      -2.3432   1.0961   0.1085   C.ar      1 1      0.0000
    22 H9      -0.3205   1.7635   0.2774   H         1 1      0.0000
    23 C6      -2.6731  -1.2835   0.1670   C.ar      1 1      0.0000
    24 H5      -0.9070  -2.4668   0.3814   H         1 1      0.0000
    25 C7      -3.1901  -0.0009   0.0687   C.ar      1 1      0.0000
    26 H8      -2.7472   2.1001   0.0312   H         1 1      0.0000
    27 H6      -3.3354  -2.1424   0.1355   H         1 1      0.0000
    28 NO      -4.5051   0.1782  -0.0646   N.pl3     1 1      0.0000
    29 ON2     -5.2943  -0.7325   0.2927   O.2       1 1      0.0000
    30 ON1     -4.9386   1.2554  -0.5458   O.2       1 1      0.0000
    31 C15      5.4031  -1.2318  -0.0175   C.3       1 1      0.0000
    32 H15A     5.6648  -0.5757   0.8100   H         1 1      0.0000
    33 H15C     5.8152  -2.2175   0.1881   H         1 1      0.0000
    34 H15B     5.8774  -0.8473  -0.9181   H         1 1      0.0000
@<TRIPOS>BOND
     1     1     2    1
     2     1    15    1
     3     1    16    1
     4     1    18    1
     5     2     3    1
     6     2     4    1
     7     2    14    1
     8     4     5    1
     9     4     8    2
    10     5     6    1
    11     5     7    1
    12     5    31    1
    13     8     9    1
    14     8    10    1
    15    10    11    1
    16    10    12    1
    17    10    13    1
    18    15    17    1
    19    18    19   ar
    20    18    20   ar
    21    19    21   ar
    22    19    22    1
    23    20    23   ar
    24    20    24    1
    25    21    25   ar
    26    21    26    1
    27    23    25   ar
    28    23    27    1
    29    25    28   un
    30    28    29   un
    31    28    30   un
    32    31    32    1
    33    31    33    1
    34    31    34    1
@<TRIPOS>SUBSTRUCTURE
     1 1           1 GROUP             0 ****  ****    0  
@<TRIPOS>MOLECULE
Molecule Name_00001_00001_00035
    34    34     1     0     0
SMALL
NO_CHARGES
****
Generated from the CSD

@<TRIPOS>ATOM
     1 C11      1.0403   0.4906  -0.4518   C.3       1 1      0.0000
     2 C12      1.8326  -0.3710   0.5265   C.3       1 1      0.0000
     3 H12A     1.4749  -1.4060   0.4638   H         1 1      0.0000
     4 C13      3.3080  -0.3438   0.2646   C.2       1 1      0.0000
     5 C14      3.9473  -1.6033  -0.2362   C.3       1 1      0.0000
     6 H14B     3.4857  -1.8858  -1.1904   H         1 1      0.0000
     7 H14A     3.7564  -2.4127   0.4792   H         1 1      0.0000
     8 N        4.0253   0.7385   0.4894   N.pl3     1 1      0.0000
     9 HN       5.0263   0.6684   0.3074   H         1 1      0.0000
    10 C        3.5170   2.0561   0.8419   C.3       1 1      0.0000
    11 HC       4.2681   2.6253   1.3857   H         1 1      0.0000
    12 HB       3.2465   2.6188  -0.0489   H         1 1      0.0000
    13 HA       2.6339   1.9729   1.4718   H         1 1      0.0000
    14 H12B     1.6455  -0.0159   1.5475   H         1 1      0.0000
    15 O1       1.4019   0.1158  -1.7784   O.3       1 1      0.0000
    16 H11      1.3072   1.5471  -0.2942   H         1 1      0.0000
    17 OH1      0.9093   0.6792  -2.4250   H         1 1      0.0000
    18 C10     -0.4489   0.3237  -0.2299   C.ar      1 1      0.0000
    19 C9      -1.2551   1.4268   0.0164   C.ar      1 1      0.0000
    20 C5      -1.0338  -0.9346  -0.2747   C.ar      1 1      0.0000
    21 C8      -2.6146   1.2816   0.2164   C.ar      1 1      0.0000
    22 H9      -0.8116   2.4164   0.0524   H         1 1      0.0000
    23 C6      -2.3920  -1.0932  -0.0763   C.ar      1 1      0.0000
    24 H5      -0.4159  -1.8053  -0.4680   H         1 1      0.0000
    25 C7      -3.1834   0.0181   0.1700   C.ar      1 1      0.0000
    26 H8      -3.2336   2.1517   0.4088   H         1 1      0.0000
    27 H6      -2.8368  -2.0822  -0.1131   H         1 1      0.0000
    28 NO      -4.4951  -0.1285   0.3626   N.pl3     1 1      0.0000
    29 ON2     -4.9487  -1.2458   0.7175   O.2       1 1      0.0000
    30 ON1     -5.2612   0.8524   0.1869   O.2       1 1      0.0000
    31 C15      5.4483  -1.4531  -0.4327   C.3       1 1      0.0000
    32 H15A     5.9360  -1.1939   0.5047   H         1 1      0.0000
    33 H15C     5.8844  -2.3811  -0.7964   H         1 1      0.0000
    34 H15B     5.6661  -0.6700  -1.1560   H         1 1      0.0000
@<TRIPOS>BOND
     1     1     2    1
     2     1    15    1
     3     1    16    1
     4     1    18    1
     5     2     3    1
     6     2     4    1
     7     2    14    1
     8     4     5    1
     9     4     8    2
    10     5     6    1
    11     5     7    1
    12     5    31    1
    13     8     9    1
    14     8    10    1
    15    10    11    1
    16    10    12    1
    17    10    13    1
    18    15    17    1
    19    18    19   ar
    20    18    20   ar
    21    19    21   ar
    22    19    22    1
    23    20    23   ar
    24    20    24    1
    25    21    25   ar
    26    21    26    1
    27    23    25   ar
    28    23    27    1
    29    25    28   un
    30    28    29   un
    31    28    30   un
    32    31    32    1
    33    31    33    1
    34    31    34    1
@<TRIPOS>SUBSTRUCTURE
     1 1           1 GROUP             0 ****  ****    0  
@<TRIPOS>MOLECULE
Molecule Name_00001_00001_00036
    34    34     1     0     0
SMALL
NO_CHARGES
****
Generated from the CSD

@<TRIPOS>ATOM
     1 C11      1.0405   0.4915  -0.4555   C.3       1 1      0.0000
     2 C12      1.8301  -0.3714   0.5239   C.3       1 1      0.0000
     3 H12A     1.4723  -1.4061   0.4593   H         1 1      0.0000
     4 C13      3.3062  -0.3444   0.2655   C.2       1 1      0.0000
     5 C14      3.9464  -1.6035  -0.2351   C.3       1 1      0.0000
     6 H14B     3.4869  -1.8849  -1.1907   H         1 1      0.0000
     7 H14A     3.7535  -2.4135   0.4791   H         1 1      0.0000
     8 N        4.0233   0.7375   0.4930   N.pl3     1 1      0.0000
     9 HN       5.0248   0.6674   0.3133   H         1 1      0.0000
    10 C        3.5146   2.0550   0.8457   C.3       1 1      0.0000
    11 HC       4.2645   2.6234   1.3917   H         1 1      0.0000
    12 HB       3.2463   2.6186  -0.0452   H         1 1      0.0000
    13 HA       2.6299   1.9714   1.4734   H         1 1      0.0000
    14 H12B     1.6408  -0.0172   1.5447   H         1 1      0.0000
    15 O1       1.4051   0.1179  -1.7816   O.3       1 1      0.0000
    16 H11      1.3073   1.5477  -0.2962   H         1 1      0.0000
    17 OH1      0.9142   0.6821  -2.4288   H         1 1      0.0000
    18 C10     -0.4493   0.3248  -0.2373   C.ar      1 1      0.0000
    19 C9      -1.0336  -0.9339  -0.2791   C.ar      1 1      0.0000
    20 C5      -1.2548   1.4273   0.0137   C.ar      1 1      0.0000
    21 C8      -2.3913  -1.0930  -0.0777   C.ar      1 1      0.0000
    22 H9      -0.4157  -1.8045  -0.4727   H         1 1      0.0000
    23 C6      -2.6138   1.2816   0.2168   C.ar      1 1      0.0000
    24 H5      -0.8113   2.4168   0.0509   H         1 1      0.0000
    25 C7      -3.1825   0.0181   0.1705   C.ar      1 1      0.0000
    26 H8      -2.8358  -2.0821  -0.1137   H         1 1      0.0000
    27 H6      -3.2326   2.1514   0.4114   H         1 1      0.0000
    28 NO      -4.4938  -0.1290   0.3654   N.pl3     1 1      0.0000
    29 ON2     -5.2605   0.8518   0.1916   O.2       1 1      0.0000
    30 ON1     -4.9465  -1.2466   0.7204   O.2       1 1      0.0000
    31 C15      5.4478  -1.4536  -0.4279   C.3       1 1      0.0000
    32 H15A     5.9334  -1.1954   0.5109   H         1 1      0.0000
    33 H15C     5.8845  -2.3814  -0.7914   H         1 1      0.0000
    34 H15B     5.6676  -0.6698  -1.1498   H         1 1      0.0000
@<TRIPOS>BOND
     1     1     2    1
     2     1    15    1
     3     1    16    1
     4     1    18    1
     5     2     3    1
     6     2     4    1
     7     2    14    1
     8     4     5    1
     9     4     8    2
    10     5     6    1
    11     5     7    1
    12     5    31    1
    13     8     9    1
    14     8    10    1
    15    10    11    1
    16    10    12    1
    17    10    13    1
    18    15    17    1
    19    18    19   ar
    20    18    20   ar
    21    19    21   ar
    22    19    22    1
    23    20    23   ar
    24    20    24    1
    25    21    25   ar
    26    21    26    1
    27    23    25   ar
    28    23    27    1
    29    25    28   un
    30    28    29   un
    31    28    30   un
    32    31    32    1
    33    31    33    1
    34    31    34    1
@<TRIPOS>SUBSTRUCTURE
     1 1           1 GROUP             0 ****  ****    0  
@<TRIPOS>MOLECULE
Molecule Name_00001_00001_00037
    34    34     1     0     0
SMALL
NO_CHARGES
****
Generated from the CSD

@<TRIPOS>ATOM
     1 C11      1.1395   0.9662   1.1099   C.3       1 1      0.0000
     2 C12      2.0196   1.1992  -0.1142   C.3       1 1      0.0000
     3 H12A     2.6938   2.0413   0.0840   H         1 1      0.0000
     4 C13      2.8319  -0.0044  -0.4856   C.2       1 1      0.0000
     5 C14      2.1731  -1.0528  -1.3297   C.3       1 1      0.0000
     6 H14B     1.8456  -0.6005  -2.2740   H         1 1      0.0000
     7 H14A     1.2808  -1.4241  -0.8107   H         1 1      0.0000
     8 N        4.0724  -0.1515  -0.0662   N.pl3     1 1      0.0000
     9 HN       4.5493  -1.0091  -0.3438   H         1 1      0.0000
    10 C        4.8717   0.8407   0.6377   C.3       1 1      0.0000
    11 HC       5.9335   0.6502   0.4962   H         1 1      0.0000
    12 HB       4.6568   1.8425   0.2721   H         1 1      0.0000
    13 HA       4.6629   0.8172   1.7053   H         1 1      0.0000
    14 H12B     1.3833   1.4755  -0.9640   H         1 1      0.0000
    15 O1       1.0873   2.1739   1.8647   O.3       1 1      0.0000
    16 H11      1.5921   0.1770   1.7301   H         1 1      0.0000
    17 OH1      0.5344   2.0330   2.6725   H         1 1      0.0000
    18 C10     -0.2500   0.5269   0.6962   C.ar      1 1      0.0000
    19 C9      -0.5906  -0.8189   0.6797   C.ar      1 1      0.0000
    20 C5      -1.2083   1.4631   0.3319   C.ar      1 1      0.0000
    21 C8      -1.8572  -1.2258   0.3064   C.ar      1 1      0.0000
    22 H9       0.1480  -1.5613   0.9637   H         1 1      0.0000
    23 C6      -2.4785   1.0692  -0.0433   C.ar      1 1      0.0000
    24 H5      -0.9565   2.5184   0.3420   H         1 1      0.0000
    25 C7      -2.8027  -0.2787  -0.0560   C.ar      1 1      0.0000
    26 H8      -2.1106  -2.2807   0.2971   H         1 1      0.0000
    27 H6      -3.2182   1.8107  -0.3265   H         1 1      0.0000
    28 NO      -4.0270  -0.6653  -0.4176   N.pl3     1 1      0.0000
    29 ON2     -4.7403   0.1027  -1.1113   O.2       1 1      0.0000
    30 ON1     -4.4522  -1.7929  -0.0601   O.2       1 1      0.0000
    31 C15      3.0994  -2.2214  -1.6306   C.3       1 1      0.0000
    32 H15A     3.4231  -2.7037  -0.7107   H         1 1      0.0000
    33 H15C     2.5951  -2.9652  -2.2440   H         1 1      0.0000
    34 H15B     3.9844  -1.8841  -2.1660   H         1 1      0.0000
@<TRIPOS>BOND
     1     1     2    1
     2     1    15    1
     3     1    16    1
     4     1    18    1
     5     2     3    1
     6     2     4    1
     7     2    14    1
     8     4     5    1
     9     4     8    2
    10     5     6    1
    11     5     7    1
    12     5    31    1
    13     8     9    1
    14     8    10    1
    15    10    11    1
    16    10    12    1
    17    10    13    1
    18    15    17    1
    19    18    19   ar
    20    18    20   ar
    21    19    21   ar
    22    19    22    1
    23    20    23   ar
    24    20    24    1
    25    21    25   ar
    26    21    26    1
    27    23    25   ar
    28    23    27    1
    29    25    28   un
    30    28    29   un
    31    28    30   un
    32    31    32    1
    33    31    33    1
    34    31    34    1
@<TRIPOS>SUBSTRUCTURE
     1 1           1 GROUP             0 ****  ****    0  
@<TRIPOS>MOLECULE
Molecule Name_00001_00001_00038
    34    34     1     0     0
SMALL
NO_CHARGES
****
Generated from the CSD

@<TRIPOS>ATOM
     1 C11      1.2692   0.0026   1.5543   C.3       1 1      0.0000
     2 C12      2.2324   0.8115   0.6910   C.3       1 1      0.0000
     3 H12A     2.9905   1.2729   1.3355   H         1 1      0.0000
     4 C13      2.9145  -0.0176  -0.3548   C.2       1 1      0.0000
     5 C14      4.1123  -0.8150   0.0639   C.3       1 1      0.0000
     6 H14B     3.8172  -1.5206   0.8504   H         1 1      0.0000
     7 H14A     4.8646  -0.1384   0.4879   H         1 1      0.0000
     8 N        2.4951  -0.0280  -1.6039   N.pl3     1 1      0.0000
     9 HN       3.0273  -0.6002  -2.2592   H         1 1      0.0000
    10 C        1.2773   0.5853  -2.1134   C.3       1 1      0.0000
    11 HC       0.7269  -0.1142  -2.7391   H         1 1      0.0000
    12 HB       0.6266   0.8923  -1.2973   H         1 1      0.0000
    13 HA       1.5091   1.4642  -2.7113   H         1 1      0.0000
    14 H12B     1.6778   1.6198   0.1988   H         1 1      0.0000
    15 O1       1.2796   0.5454   2.8720   O.3       1 1      0.0000
    16 H11      1.6173  -1.0412   1.5956   H         1 1      0.0000
    17 OH1      0.6727   0.0192   3.4490   H         1 1      0.0000
    18 C10     -0.1279   0.0298   0.9695   C.ar      1 1      0.0000
    19 C9      -0.5630  -0.9868   0.1300   C.ar      1 1      0.0000
    20 C5      -0.9991   1.0689   1.2675   C.ar      1 1      0.0000
    21 C8      -1.8373  -0.9695  -0.4040   C.ar      1 1      0.0000
    22 H9       0.1067  -1.8061  -0.1099   H         1 1      0.0000
    23 C6      -2.2758   1.0979   0.7399   C.ar      1 1      0.0000
    24 H5      -0.6729   1.8692   1.9236   H         1 1      0.0000
    25 C7      -2.6950   0.0759  -0.0979   C.ar      1 1      0.0000
    26 H8      -2.1650  -1.7697  -1.0593   H         1 1      0.0000
    27 H6      -2.9468   1.9161   0.9800   H         1 1      0.0000
    28 NO      -3.9261   0.0984  -0.6107   N.pl3     1 1      0.0000
    29 ON2     -4.5501   1.1875  -0.6778   O.2       1 1      0.0000
    30 ON1     -4.4469  -0.9697  -1.0204   O.2       1 1      0.0000
    31 C15      4.7287  -1.5863  -1.0933   C.3       1 1      0.0000
    32 H15A     5.0512  -0.9081  -1.8805   H         1 1      0.0000
    33 H15C     5.5944  -2.1550  -0.7601   H         1 1      0.0000
    34 H15B     4.0094  -2.2826  -1.5194   H         1 1      0.0000
@<TRIPOS>BOND
     1     1     2    1
     2     1    15    1
     3     1    16    1
     4     1    18    1
     5     2     3    1
     6     2     4    1
     7     2    14    1
     8     4     5    1
     9     4     8    2
    10     5     6    1
    11     5     7    1
    12     5    31    1
    13     8     9    1
    14     8    10    1
    15    10    11    1
    16    10    12    1
    17    10    13    1
    18    15    17    1
    19    18    19   ar
    20    18    20   ar
    21    19    21   ar
    22    19    22    1
    23    20    23   ar
    24    20    24    1
    25    21    25   ar
    26    21    26    1
    27    23    25   ar
    28    23    27    1
    29    25    28   un
    30    28    29   un
    31    28    30   un
    32    31    32    1
    33    31    33    1
    34    31    34    1
@<TRIPOS>SUBSTRUCTURE
     1 1           1 GROUP             0 ****  ****    0  
@<TRIPOS>MOLECULE
Molecule Name_00001_00001_00039
    34    34     1     0     0
SMALL
NO_CHARGES
****
Generated from the CSD

@<TRIPOS>ATOM
     1 C11      1.1401   0.9656   1.1133   C.3       1 1      0.0000
     2 C12      2.0170   1.1990  -0.1131   C.3       1 1      0.0000
     3 H12A     2.6912   2.0415   0.0832   H         1 1      0.0000
     4 C13      2.8290  -0.0041  -0.4864   C.2       1 1      0.0000
     5 C14      2.1690  -1.0527  -1.3294   C.3       1 1      0.0000
     6 H14B     1.8390  -0.6003  -2.2727   H         1 1      0.0000
     7 H14A     1.2782  -1.4248  -0.8084   H         1 1      0.0000
     8 N        4.0705  -0.1507  -0.0696   N.pl3     1 1      0.0000
     9 HN       4.5472  -1.0081  -0.3483   H         1 1      0.0000
    10 C        4.8707   0.8418   0.6329   C.3       1 1      0.0000
    11 HC       5.9323   0.6517   0.4892   H         1 1      0.0000
    12 HB       4.6547   1.8435   0.2679   H         1 1      0.0000
    13 HA       4.6642   0.8180   1.7008   H         1 1      0.0000
    14 H12B     1.3783   1.4747  -0.9613   H         1 1      0.0000
    15 O1       1.0903   2.1730   1.8687   O.3       1 1      0.0000
    16 H11      1.5942   0.1761   1.7319   H         1 1      0.0000
    17 OH1      0.5395   2.0319   2.6780   H         1 1      0.0000
    18 C10     -0.2506   0.5269   0.7032   C.ar      1 1      0.0000
    19 C9      -1.2078   1.4630   0.3358   C.ar      1 1      0.0000
    20 C5      -0.5900  -0.8192   0.6823   C.ar      1 1      0.0000
    21 C8      -2.4771   1.0690  -0.0424   C.ar      1 1      0.0000
    22 H9      -0.9558   2.5183   0.3459   H         1 1      0.0000
    23 C6      -1.8558  -1.2261   0.3061   C.ar      1 1      0.0000
    24 H5       0.1488  -1.5618   0.9653   H         1 1      0.0000
    25 C7      -2.8010  -0.2790  -0.0567   C.ar      1 1      0.0000
    26 H8      -3.2163   1.8106  -0.3266   H         1 1      0.0000
    27 H6      -2.1086  -2.2812   0.2947   H         1 1      0.0000
    28 NO      -4.0247  -0.6654  -0.4205   N.pl3     1 1      0.0000
    29 ON2     -4.4501  -1.7934  -0.0647   O.2       1 1      0.0000
    30 ON1     -4.7371   0.1032  -1.1145   O.2       1 1      0.0000
    31 C15      3.0954  -2.2205  -1.6328   C.3       1 1      0.0000
    32 H15A     3.4216  -2.7029  -0.7138   H         1 1      0.0000
    33 H15C     2.5902  -2.9645  -2.2453   H         1 1      0.0000
    34 H15B     3.9789  -1.8824  -2.1702   H         1 1      0.0000
@<TRIPOS>BOND
     1     1     2    1
     2     1    15    1
     3     1    16    1
     4     1    18    1
     5     2     3    1
     6     2     4    1
     7     2    14    1
     8     4     5    1
     9     4     8    2
    10     5     6    1
    11     5     7    1
    12     5    31    1
    13     8     9    1
    14     8    10    1
    15    10    11    1
    16    10    12    1
    17    10    13    1
    18    15    17    1
    19    18    19   ar
    20    18    20   ar
    21    19    21   ar
    22    19    22    1
    23    20    23   ar
    24    20    24    1
    25    21    25   ar
    26    21    26    1
    27    23    25   ar
    28    23    27    1
    29    25    28   un
    30    28    29   un
    31    28    30   un
    32    31    32    1
    33    31    33    1
    34    31    34    1
@<TRIPOS>SUBSTRUCTURE
     1 1           1 GROUP             0 ****  ****    0  
@<TRIPOS>MOLECULE
Molecule Name_00001_00001_00040
    34    34     1     0     0
SMALL
NO_CHARGES
****
Generated from the CSD

@<TRIPOS>ATOM
     1 C11      1.2703   0.0036   1.5568   C.3       1 1      0.0000
     2 C12      2.2305   0.8124   0.6899   C.3       1 1      0.0000
     3 H12A     2.9894   1.2760   1.3319   H         1 1      0.0000
     4 C13      2.9114  -0.0176  -0.3559   C.2       1 1      0.0000
     5 C14      4.1112  -0.8126   0.0614   C.3       1 1      0.0000
     6 H14B     3.8190  -1.5172   0.8498   H         1 1      0.0000
     7 H14A     4.8635  -0.1342   0.4825   H         1 1      0.0000
     8 N        2.4891  -0.0308  -1.6041   N.pl3     1 1      0.0000
     9 HN       3.0206  -0.6035  -2.2596   H         1 1      0.0000
    10 C        1.2692   0.5798  -2.1118   C.3       1 1      0.0000
    11 HC       0.7182  -0.1217  -2.7348   H         1 1      0.0000
    12 HB       0.6202   0.8876  -1.2949   H         1 1      0.0000
    13 HA       1.4984   1.4577  -2.7122   H         1 1      0.0000
    14 H12B     1.6736   1.6191   0.1975   H         1 1      0.0000
    15 O1       1.2829   0.5489   2.8735   O.3       1 1      0.0000
    16 H11      1.6200  -1.0395   1.5991   H         1 1      0.0000
    17 OH1      0.6781   0.0228   3.4528   H         1 1      0.0000
    18 C10     -0.1281   0.0278   0.9751   C.ar      1 1      0.0000
    19 C9      -0.9982   1.0691   1.2688   C.ar      1 1      0.0000
    20 C5      -0.5618  -0.9880   0.1339   C.ar      1 1      0.0000
    21 C8      -2.2740   1.0987   0.7388   C.ar      1 1      0.0000
    22 H9      -0.6720   1.8706   1.9234   H         1 1      0.0000
    23 C6      -1.8351  -0.9700  -0.4025   C.ar      1 1      0.0000
    24 H5       0.1083  -1.8071  -0.1055   H         1 1      0.0000
    25 C7      -2.6925   0.0761  -0.0986   C.ar      1 1      0.0000
    26 H8      -2.9445   1.9179   0.9767   H         1 1      0.0000
    27 H6      -2.1620  -1.7704  -1.0581   H         1 1      0.0000
    28 NO      -3.9230   0.0989  -0.6130   N.pl3     1 1      0.0000
    29 ON2     -4.4439  -0.9693  -1.0223   O.2       1 1      0.0000
    30 ON1     -4.5463   1.1883  -0.6819   O.2       1 1      0.0000
    31 C15      4.7261  -1.5850  -1.0958   C.3       1 1      0.0000
    32 H15A     5.0459  -0.9077  -1.8850   H         1 1      0.0000
    33 H15C     5.5933  -2.1519  -0.7636   H         1 1      0.0000
    34 H15B     4.0068  -2.2830  -1.5191   H         1 1      0.0000
@<TRIPOS>BOND
     1     1     2    1
     2     1    15    1
     3     1    16    1
     4     1    18    1
     5     2     3    1
     6     2     4    1
     7     2    14    1
     8     4     5    1
     9     4     8    2
    10     5     6    1
    11     5     7    1
    12     5    31    1
    13     8     9    1
    14     8    10    1
    15    10    11    1
    16    10    12    1
    17    10    13    1
    18    15    17    1
    19    18    19   ar
    20    18    20   ar
    21    19    21   ar
    22    19    22    1
    23    20    23   ar
    24    20    24    1
    25    21    25   ar
    26    21    26    1
    27    23    25   ar
    28    23    27    1
    29    25    28   un
    30    28    29   un
    31    28    30   un
    32    31    32    1
    33    31    33    1
    34    31    34    1
@<TRIPOS>SUBSTRUCTURE
     1 1           1 GROUP             0 ****  ****    0  
@<TRIPOS>MOLECULE
Molecule Name_00001_00001_00041
    34    34     1     0     0
SMALL
NO_CHARGES
****
Generated from the CSD

@<TRIPOS>ATOM
     1 C11      1.1807  -0.5628  -0.4476   C.3       1 1      0.0000
     2 C12      1.9644  -0.0807   0.7693   C.3       1 1      0.0000
     3 H12A     1.9884  -0.8800   1.5201   H         1 1      0.0000
     4 C13      3.3686   0.3231   0.4358   C.2       1 1      0.0000
     5 C14      4.4066  -0.7563   0.3802   C.3       1 1      0.0000
     6 H14B     4.2857  -1.4162   1.2481   H         1 1      0.0000
     7 H14A     5.4027  -0.3011   0.4436   H         1 1      0.0000
     8 N        3.6883   1.5837   0.2235   N.pl3     1 1      0.0000
     9 HN       4.6695   1.7784   0.0245   H         1 1      0.0000
    10 C        2.7656   2.7041   0.1129   C.3       1 1      0.0000
    11 HC       3.1721   3.4745  -0.5390   H         1 1      0.0000
    12 HB       1.8117   2.3821  -0.2990   H         1 1      0.0000
    13 HA       2.5809   3.1491   1.0884   H         1 1      0.0000
    14 H12B     1.4431   0.7766   1.2130   H         1 1      0.0000
    15 O1       1.4548  -1.9479  -0.6411   O.3       1 1      0.0000
    16 H11      1.5193  -0.0047  -1.3342   H         1 1      0.0000
    17 OH1      0.9674  -2.2711  -1.4387   H         1 1      0.0000
    18 C10     -0.3036  -0.3268  -0.2581   C.ar      1 1      0.0000
    19 C9      -0.9053   0.8232  -0.7508   C.ar      1 1      0.0000
    20 C5      -1.0886  -1.2593   0.4066   C.ar      1 1      0.0000
    21 C8      -2.2593   1.0428  -0.5841   C.ar      1 1      0.0000
    22 H9      -0.3042   1.5597  -1.2738   H         1 1      0.0000
    23 C6      -2.4436  -1.0515   0.5798   C.ar      1 1      0.0000
    24 H5      -0.6319  -2.1635   0.7953   H         1 1      0.0000
    25 C7      -3.0294   0.1027   0.0832   C.ar      1 1      0.0000
    26 H8      -2.7173   1.9461  -0.9733   H         1 1      0.0000
    27 H6      -3.0460  -1.7877   1.1018   H         1 1      0.0000
    28 NO      -4.3369   0.3092   0.2475   N.pl3     1 1      0.0000
    29 ON2     -4.9506  -0.2982   1.1609   O.2       1 1      0.0000
    30 ON1     -4.9389   1.1086  -0.5130   O.2       1 1      0.0000
    31 C15      4.3150  -1.5838  -0.8930   C.3       1 1      0.0000
    32 H15A     3.7195  -1.0701  -1.6448   H         1 1      0.0000
    33 H15C     5.3044  -1.7630  -1.3085   H         1 1      0.0000
    34 H15B     3.8513  -2.5477  -0.6939   H         1 1      0.0000
@<TRIPOS>BOND
     1     1     2    1
     2     1    15    1
     3     1    16    1
     4     1    18    1
     5     2     3    1
     6     2     4    1
     7     2    14    1
     8     4     5    1
     9     4     8    2
    10     5     6    1
    11     5     7    1
    12     5    31    1
    13     8     9    1
    14     8    10    1
    15    10    11    1
    16    10    12    1
    17    10    13    1
    18    15    17    1
    19    18    19   ar
    20    18    20   ar
    21    19    21   ar
    22    19    22    1
    23    20    23   ar
    24    20    24    1
    25    21    25   ar
    26    21    26    1
    27    23    25   ar
    28    23    27    1
    29    25    28   un
    30    28    29   un
    31    28    30   un
    32    31    32    1
    33    31    33    1
    34    31    34    1
@<TRIPOS>SUBSTRUCTURE
     1 1           1 GROUP             0 ****  ****    0  
@<TRIPOS>MOLECULE
Molecule Name_00001_00001_00042
    34    34     1     0     0
SMALL
NO_CHARGES
****
Generated from the CSD

@<TRIPOS>ATOM
     1 C11      1.1811  -0.5645  -0.4508   C.3       1 1      0.0000
     2 C12      1.9615  -0.0816   0.7678   C.3       1 1      0.0000
     3 H12A     1.9847  -0.8808   1.5186   H         1 1      0.0000
     4 C13      3.3661   0.3237   0.4374   C.2       1 1      0.0000
     5 C14      4.4053  -0.7547   0.3842   C.3       1 1      0.0000
     6 H14B     4.2831  -1.4148   1.2518   H         1 1      0.0000
     7 H14A     5.4008  -0.2985   0.4498   H         1 1      0.0000
     8 N        3.6850   1.5846   0.2257   N.pl3     1 1      0.0000
     9 HN       4.6664   1.7803   0.0289   H         1 1      0.0000
    10 C        2.7614   2.7040   0.1131   C.3       1 1      0.0000
    11 HC       3.1686   3.4748  -0.5380   H         1 1      0.0000
    12 HB       1.8088   2.3810  -0.3011   H         1 1      0.0000
    13 HA       2.5740   3.1489   1.0881   H         1 1      0.0000
    14 H12B     1.4384   0.7752   1.2102   H         1 1      0.0000
    15 O1       1.4572  -1.9493  -0.6438   O.3       1 1      0.0000
    16 H11      1.5210  -0.0061  -1.3367   H         1 1      0.0000
    17 OH1      0.9719  -2.2730  -1.4424   H         1 1      0.0000
    18 C10     -0.3039  -0.3302  -0.2646   C.ar      1 1      0.0000
    19 C9      -1.0883  -1.2610   0.4032   C.ar      1 1      0.0000
    20 C5      -0.9048   0.8218  -0.7538   C.ar      1 1      0.0000
    21 C8      -2.4427  -1.0516   0.5791   C.ar      1 1      0.0000
    22 H9      -0.6315  -2.1650   0.7922   H         1 1      0.0000
    23 C6      -2.2582   1.0429  -0.5844   C.ar      1 1      0.0000
    24 H5      -0.3035   1.5585  -1.2762   H         1 1      0.0000
    25 C7      -3.0282   0.1033   0.0836   C.ar      1 1      0.0000
    26 H8      -3.0449  -1.7872   1.1023   H         1 1      0.0000
    27 H6      -2.7158   1.9471  -0.9720   H         1 1      0.0000
    28 NO      -4.3353   0.3108   0.2500   N.pl3     1 1      0.0000
    29 ON2     -4.9377   1.1110  -0.5094   O.2       1 1      0.0000
    30 ON1     -4.9482  -0.2964   1.1641   O.2       1 1      0.0000
    31 C15      4.3174  -1.5823  -0.8892   C.3       1 1      0.0000
    32 H15A     3.7016  -1.0813  -1.6331   H         1 1      0.0000
    33 H15C     5.3056  -1.7384  -1.3167   H         1 1      0.0000
    34 H15B     3.8782  -2.5568  -0.6862   H         1 1      0.0000
@<TRIPOS>BOND
     1     1     2    1
     2     1    15    1
     3     1    16    1
     4     1    18    1
     5     2     3    1
     6     2     4    1
     7     2    14    1
     8     4     5    1
     9     4     8    2
    10     5     6    1
    11     5     7    1
    12     5    31    1
    13     8     9    1
    14     8    10    1
    15    10    11    1
    16    10    12    1
    17    10    13    1
    18    15    17    1
    19    18    19   ar
    20    18    20   ar
    21    19    21   ar
    22    19    22    1
    23    20    23   ar
    24    20    24    1
    25    21    25   ar
    26    21    26    1
    27    23    25   ar
    28    23    27    1
    29    25    28   un
    30    28    29   un
    31    28    30   un
    32    31    32    1
    33    31    33    1
    34    31    34    1
@<TRIPOS>SUBSTRUCTURE
     1 1           1 GROUP             0 ****  ****    0  
@<TRIPOS>MOLECULE
Molecule Name_00001_00001_00043
    34    34     1     0     0
SMALL
NO_CHARGES
****
Generated from the CSD

@<TRIPOS>ATOM
     1 C11      1.0981  -0.1882  -0.7978   C.3       1 1      0.0000
     2 C12      1.9489  -0.0033   0.4549   C.3       1 1      0.0000
     3 H12A     1.9034  -0.9185   1.0576   H         1 1      0.0000
     4 C13      3.3813   0.3113   0.1455   C.2       1 1      0.0000
     5 C14      4.1134  -0.6193  -0.7730   C.3       1 1      0.0000
     6 H14B     5.0765  -0.1707  -1.0461   H         1 1      0.0000
     7 H14A     3.5317  -0.7470  -1.6942   H         1 1      0.0000
     8 N        3.9862   1.3529   0.6797   N.pl3     1 1      0.0000
     9 HN       4.9678   1.4848   0.4366   H         1 1      0.0000
    10 C        3.3634   2.4039   1.4712   C.3       1 1      0.0000
    11 HC       3.9398   3.3246   1.4098   H         1 1      0.0000
    12 HB       2.3563   2.6117   1.1166   H         1 1      0.0000
    13 HA       3.3012   2.1128   2.5177   H         1 1      0.0000
    14 H12B     1.5271   0.8118   1.0558   H         1 1      0.0000
    15 O1       1.4147  -1.4519  -1.3758   O.3       1 1      0.0000
    16 H11      1.3465   0.6061  -1.5186   H         1 1      0.0000
    17 OH1      0.8835  -1.5785  -2.2004   H         1 1      0.0000
    18 C10     -0.3766  -0.1013  -0.4627   C.ar      1 1      0.0000
    19 C9      -1.1977   0.8081  -1.1156   C.ar      1 1      0.0000
    20 C5      -0.9335  -0.9335   0.4990   C.ar      1 1      0.0000
    21 C8      -2.5443   0.8900  -0.8168   C.ar      1 1      0.0000
    22 H9      -0.7763   1.4635  -1.8707   H         1 1      0.0000
    23 C6      -2.2786  -0.8614   0.8069   C.ar      1 1      0.0000
    24 H5      -0.3038  -1.6502   1.0159   H         1 1      0.0000
    25 C7      -3.0851   0.0530   0.1470   C.ar      1 1      0.0000
    26 H8      -3.1751   1.6056  -1.3338   H         1 1      0.0000
    27 H6      -2.7014  -1.5170   1.5610   H         1 1      0.0000
    28 NO      -4.3842   0.1276   0.4401   N.pl3     1 1      0.0000
    29 ON2     -4.7970  -0.3097   1.5438   O.2       1 1      0.0000
    30 ON1     -5.1793   0.6343  -0.3912   O.2       1 1      0.0000
    31 C15      4.3582  -1.9822  -0.1430   C.3       1 1      0.0000
    32 H15A     3.4168  -2.4608   0.1186   H         1 1      0.0000
    33 H15C     4.8906  -2.6352  -0.8313   H         1 1      0.0000
    34 H15B     4.9533  -1.8871   0.7628   H         1 1      0.0000
@<TRIPOS>BOND
     1     1     2    1
     2     1    15    1
     3     1    16    1
     4     1    18    1
     5     2     3    1
     6     2     4    1
     7     2    14    1
     8     4     5    1
     9     4     8    2
    10     5     6    1
    11     5     7    1
    12     5    31    1
    13     8     9    1
    14     8    10    1
    15    10    11    1
    16    10    12    1
    17    10    13    1
    18    15    17    1
    19    18    19   ar
    20    18    20   ar
    21    19    21   ar
    22    19    22    1
    23    20    23   ar
    24    20    24    1
    25    21    25   ar
    26    21    26    1
    27    23    25   ar
    28    23    27    1
    29    25    28   un
    30    28    29   un
    31    28    30   un
    32    31    32    1
    33    31    33    1
    34    31    34    1
@<TRIPOS>SUBSTRUCTURE
     1 1           1 GROUP             0 ****  ****    0  
@<TRIPOS>MOLECULE
Molecule Name_00001_00001_00044
    34    34     1     0     0
SMALL
NO_CHARGES
****
Generated from the CSD

@<TRIPOS>ATOM
     1 C11      1.0985  -0.1918  -0.8005   C.3       1 1      0.0000
     2 C12      1.9468  -0.0045   0.4536   C.3       1 1      0.0000
     3 H12A     1.9017  -0.9193   1.0570   H         1 1      0.0000
     4 C13      3.3792   0.3121   0.1465   C.2       1 1      0.0000
     5 C14      4.1144  -0.6181  -0.7700   C.3       1 1      0.0000
     6 H14B     5.0773  -0.1682  -1.0418   H         1 1      0.0000
     7 H14A     3.5345  -0.7475  -1.6921   H         1 1      0.0000
     8 N        3.9815   1.3551   0.6808   N.pl3     1 1      0.0000
     9 HN       4.9634   1.4883   0.4393   H         1 1      0.0000
    10 C        3.3557   2.4057   1.4704   C.3       1 1      0.0000
    11 HC       3.9307   3.3274   1.4091   H         1 1      0.0000
    12 HB       2.3488   2.6116   1.1139   H         1 1      0.0000
    13 HA       3.2922   2.1155   2.5171   H         1 1      0.0000
    14 H12B     1.5226   0.8105   1.0531   H         1 1      0.0000
    15 O1       1.4180  -1.4554  -1.3768   O.3       1 1      0.0000
    16 H11      1.3469   0.6024  -1.5214   H         1 1      0.0000
    17 OH1      0.8885  -1.5835  -2.2022   H         1 1      0.0000
    18 C10     -0.3770  -0.1069  -0.4681   C.ar      1 1      0.0000
    19 C9      -0.9331  -0.9354   0.4973   C.ar      1 1      0.0000
    20 C5      -1.1972   0.8045  -1.1192   C.ar      1 1      0.0000
    21 C8      -2.2776  -0.8607   0.8074   C.ar      1 1      0.0000
    22 H9      -0.3034  -1.6512   1.0153   H         1 1      0.0000
    23 C6      -2.5432   0.8891  -0.8183   C.ar      1 1      0.0000
    24 H5      -0.7756   1.4594  -1.8746   H         1 1      0.0000
    25 C7      -3.0838   0.0539   0.1473   C.ar      1 1      0.0000
    26 H8      -2.7001  -1.5142   1.5634   H         1 1      0.0000
    27 H6      -3.1736   1.6053  -1.3349   H         1 1      0.0000
    28 NO      -4.3824   0.1305   0.4420   N.pl3     1 1      0.0000
    29 ON2     -5.1780   0.6371  -0.3888   O.2       1 1      0.0000
    30 ON1     -4.7943  -0.3049   1.5468   O.2       1 1      0.0000
    31 C15      4.3602  -1.9801  -0.1385   C.3       1 1      0.0000
    32 H15A     3.4191  -2.4600   0.1219   H         1 1      0.0000
    33 H15C     4.8949  -2.6329  -0.8253   H         1 1      0.0000
    34 H15B     4.9535  -1.8833   0.7684   H         1 1      0.0000
@<TRIPOS>BOND
     1     1     2    1
     2     1    15    1
     3     1    16    1
     4     1    18    1
     5     2     3    1
     6     2     4    1
     7     2    14    1
     8     4     5    1
     9     4     8    2
    10     5     6    1
    11     5     7    1
    12     5    31    1
    13     8     9    1
    14     8    10    1
    15    10    11    1
    16    10    12    1
    17    10    13    1
    18    15    17    1
    19    18    19   ar
    20    18    20   ar
    21    19    21   ar
    22    19    22    1
    23    20    23   ar
    24    20    24    1
    25    21    25   ar
    26    21    26    1
    27    23    25   ar
    28    23    27    1
    29    25    28   un
    30    28    29   un
    31    28    30   un
    32    31    32    1
    33    31    33    1
    34    31    34    1
@<TRIPOS>SUBSTRUCTURE
     1 1           1 GROUP             0 ****  ****    0  
@<TRIPOS>MOLECULE
Molecule Name_00001_00001_00045
    34    34     1     0     0
SMALL
NO_CHARGES
****
Generated from the CSD

@<TRIPOS>ATOM
     1 C11      1.1135  -0.2869   0.7787   C.3       1 1      0.0000
     2 C12      1.9168   0.2884  -0.3835   C.3       1 1      0.0000
     3 H12A     1.7270   1.3665  -0.4517   H         1 1      0.0000
     4 C13      3.3910   0.0563  -0.2445   C.2       1 1      0.0000
     5 C14      3.9236  -1.2848  -0.6486   C.3       1 1      0.0000
     6 H14B     3.2912  -2.0686  -0.2135   H         1 1      0.0000
     7 H14A     4.9348  -1.4079  -0.2415   H         1 1      0.0000
     8 N        4.1897   0.9862   0.2390   N.pl3     1 1      0.0000
     9 HN       5.1763   0.7418   0.3228   H         1 1      0.0000
    10 C        3.8314   2.3647   0.5392   C.3       1 1      0.0000
    11 HC       4.7121   3.0034   0.5229   H         1 1      0.0000
    12 HB       3.1220   2.7491  -0.1905   H         1 1      0.0000
    13 HA       3.3776   2.4391   1.5252   H         1 1      0.0000
    14 H12B     1.5708  -0.1699  -1.3182   H         1 1      0.0000
    15 O1       1.4350   0.4477   1.9569   O.3       1 1      0.0000
    16 H11      1.4009  -1.3396   0.9250   H         1 1      0.0000
    17 OH1      0.9349   0.0739   2.7240   H         1 1      0.0000
    18 C10     -0.3720  -0.2210   0.4892   C.ar      1 1      0.0000
    19 C9      -1.2906  -0.7606   1.3794   C.ar      1 1      0.0000
    20 C5      -0.8405   0.3852  -0.6687   C.ar      1 1      0.0000
    21 C8      -2.6470  -0.7008   1.1226   C.ar      1 1      0.0000
    22 H9      -0.9386  -1.2358   2.2891   H         1 1      0.0000
    23 C6      -2.1943   0.4515  -0.9370   C.ar      1 1      0.0000
    24 H5      -0.1339   0.8127  -1.3724   H         1 1      0.0000
    25 C7      -3.0989  -0.0933  -0.0387   C.ar      1 1      0.0000
    26 H8      -3.3545  -1.1270   1.8262   H         1 1      0.0000
    27 H6      -2.5475   0.9273  -1.8459   H         1 1      0.0000
    28 NO      -4.4071  -0.0328  -0.2923   N.pl3     1 1      0.0000
    29 ON2     -4.8026   0.1363  -1.4733   O.2       1 1      0.0000
    30 ON1     -5.2279  -0.1457   0.6529   O.2       1 1      0.0000
    31 C15      3.9677  -1.4601  -2.1591   C.3       1 1      0.0000
    32 H15A     4.6069  -0.7076  -2.6161   H         1 1      0.0000
    33 H15C     4.3576  -2.4411  -2.4223   H         1 1      0.0000
    34 H15B     2.9722  -1.3648  -2.5876   H         1 1      0.0000
@<TRIPOS>BOND
     1     1     2    1
     2     1    15    1
     3     1    16    1
     4     1    18    1
     5     2     3    1
     6     2     4    1
     7     2    14    1
     8     4     5    1
     9     4     8    2
    10     5     6    1
    11     5     7    1
    12     5    31    1
    13     8     9    1
    14     8    10    1
    15    10    11    1
    16    10    12    1
    17    10    13    1
    18    15    17    1
    19    18    19   ar
    20    18    20   ar
    21    19    21   ar
    22    19    22    1
    23    20    23   ar
    24    20    24    1
    25    21    25   ar
    26    21    26    1
    27    23    25   ar
    28    23    27    1
    29    25    28   un
    30    28    29   un
    31    28    30   un
    32    31    32    1
    33    31    33    1
    34    31    34    1
@<TRIPOS>SUBSTRUCTURE
     1 1           1 GROUP             0 ****  ****    0  
@<TRIPOS>MOLECULE
Molecule Name_00001_00001_00046
    34    34     1     0     0
SMALL
NO_CHARGES
****
Generated from the CSD

@<TRIPOS>ATOM
     1 C11      1.1835  -0.3192   0.4789   C.3       1 1      0.0000
     2 C12      1.8876   0.5273  -0.5771   C.3       1 1      0.0000
     3 H12A     1.6638   1.5857  -0.3959   H         1 1      0.0000
     4 C13      3.3737   0.3330  -0.5840   C.2       1 1      0.0000
     5 C14      3.9165  -0.8421  -1.3392   C.3       1 1      0.0000
     6 H14B     4.9976  -0.7141  -1.4745   H         1 1      0.0000
     7 H14A     3.4571  -0.8731  -2.3349   H         1 1      0.0000
     8 N        4.1757   1.1488   0.0700   N.pl3     1 1      0.0000
     9 HN       5.1723   0.9348   0.0342   H         1 1      0.0000
    10 C        3.7989   2.3933   0.7242   C.3       1 1      0.0000
    11 HC       4.6566   3.0569   0.8119   H         1 1      0.0000
    12 HB       3.0278   2.9113   0.1581   H         1 1      0.0000
    13 HA       3.4150   2.2024   1.7241   H         1 1      0.0000
    14 H12B     1.4899   0.2679  -1.5660   H         1 1      0.0000
    15 O1       1.5747   0.1488   1.7669   O.3       1 1      0.0000
    16 H11      1.5030  -1.3670   0.3677   H         1 1      0.0000
    17 OH1      1.1399  -0.4029   2.4631   H         1 1      0.0000
    18 C10     -0.3202  -0.2456   0.3107   C.ar      1 1      0.0000
    19 C9      -1.1599  -0.9979   1.1209   C.ar      1 1      0.0000
    20 C5      -0.8844   0.5797  -0.6526   C.ar      1 1      0.0000
    21 C8      -2.5324  -0.9328   0.9747   C.ar      1 1      0.0000
    22 H9      -0.7327  -1.6458   1.8791   H         1 1      0.0000
    23 C6      -2.2553   0.6537  -0.8088   C.ar      1 1      0.0000
    24 H5      -0.2401   1.1745  -1.2916   H         1 1      0.0000
    25 C7      -3.0805  -0.1048   0.0071   C.ar      1 1      0.0000
    26 H8      -3.1777  -1.5263   1.6138   H         1 1      0.0000
    27 H6      -2.6838   1.3021  -1.5660   H         1 1      0.0000
    28 NO      -4.4046  -0.0380  -0.1390   N.pl3     1 1      0.0000
    29 ON2     -4.8888   0.3686  -1.2254   O.2       1 1      0.0000
    30 ON1     -5.1516  -0.3823   0.8114   O.2       1 1      0.0000
    31 C15      3.6550  -2.1603  -0.6264   C.3       1 1      0.0000
    32 H15A     2.6375  -2.5009  -0.8065   H         1 1      0.0000
    33 H15C     4.3377  -2.9310  -0.9782   H         1 1      0.0000
    34 H15B     3.7910  -2.0516   0.4476   H         1 1      0.0000
@<TRIPOS>BOND
     1     1     2    1
     2     1    15    1
     3     1    16    1
     4     1    18    1
     5     2     3    1
     6     2     4    1
     7     2    14    1
     8     4     5    1
     9     4     8    2
    10     5     6    1
    11     5     7    1
    12     5    31    1
    13     8     9    1
    14     8    10    1
    15    10    11    1
    16    10    12    1
    17    10    13    1
    18    15    17    1
    19    18    19   ar
    20    18    20   ar
    21    19    21   ar
    22    19    22    1
    23    20    23   ar
    24    20    24    1
    25    21    25   ar
    26    21    26    1
    27    23    25   ar
    28    23    27    1
    29    25    28   un
    30    28    29   un
    31    28    30   un
    32    31    32    1
    33    31    33    1
    34    31    34    1
@<TRIPOS>SUBSTRUCTURE
     1 1           1 GROUP             0 ****  ****    0  
@<TRIPOS>MOLECULE
Molecule Name_00001_00001_00047
    34    34     1     0     0
SMALL
NO_CHARGES
****
Generated from the CSD

@<TRIPOS>ATOM
     1 C11      1.1016   0.6695  -0.4852   C.3       1 1      0.0000
     2 C12      1.9336  -0.4125   0.1963   C.3       1 1      0.0000
     3 H12A     1.7653  -1.3688  -0.3137   H         1 1      0.0000
     4 C13      3.4008  -0.1064   0.1958   C.2       1 1      0.0000
     5 C14      4.1865  -0.4757  -1.0257   C.3       1 1      0.0000
     6 H14B     5.1710   0.0058  -0.9790   H         1 1      0.0000
     7 H14A     3.6700  -0.0934  -1.9148   H         1 1      0.0000
     8 N        3.9876   0.4441   1.2394   N.pl3     1 1      0.0000
     9 HN       4.9931   0.5993   1.1684   H         1 1      0.0000
    10 C        3.3281   0.9726   2.4246   C.3       1 1      0.0000
    11 HC       3.9082   1.7848   2.8577   H         1 1      0.0000
    12 HB       2.3400   1.3564   2.1803   H         1 1      0.0000
    13 HA       3.2139   0.1980   3.1800   H         1 1      0.0000
    14 H12B     1.5935  -0.5242   1.2333   H         1 1      0.0000
    15 O1       1.4134   0.6696  -1.8758   O.3       1 1      0.0000
    16 H11      1.3709   1.6484  -0.0591   H         1 1      0.0000
    17 OH1      0.8945   1.3792  -2.3290   H         1 1      0.0000
    18 C10     -0.3774   0.4291  -0.2629   C.ar      1 1      0.0000
    19 C9      -1.3191   1.3370  -0.7280   C.ar      1 1      0.0000
    20 C5      -0.8167  -0.7060   0.4050   C.ar      1 1      0.0000
    21 C8      -2.6698   1.1219  -0.5312   C.ar      1 1      0.0000
    22 H9      -0.9900   2.2276  -1.2531   H         1 1      0.0000
    23 C6      -2.1645  -0.9327   0.6082   C.ar      1 1      0.0000
    24 H5      -0.0918  -1.4249   0.7724   H         1 1      0.0000
    25 C7      -3.0925  -0.0159   0.1387   C.ar      1 1      0.0000
    26 H8      -3.3957   1.8395  -0.8991   H         1 1      0.0000
    27 H6      -2.4948  -1.8235   1.1322   H         1 1      0.0000
    28 NO      -4.3949  -0.2290   0.3321   N.pl3     1 1      0.0000
    29 ON2     -4.7672  -1.0034   1.2494   O.2       1 1      0.0000
    30 ON1     -5.2338   0.3474  -0.4055   O.2       1 1      0.0000
    31 C15      4.3720  -1.9793  -1.1630   C.3       1 1      0.0000
    32 H15A     3.4096  -2.4819  -1.2337   H         1 1      0.0000
    33 H15C     4.9451  -2.2172  -2.0567   H         1 1      0.0000
    34 H15B     4.9026  -2.3826  -0.3029   H         1 1      0.0000
@<TRIPOS>BOND
     1     1     2    1
     2     1    15    1
     3     1    16    1
     4     1    18    1
     5     2     3    1
     6     2     4    1
     7     2    14    1
     8     4     5    1
     9     4     8    2
    10     5     6    1
    11     5     7    1
    12     5    31    1
    13     8     9    1
    14     8    10    1
    15    10    11    1
    16    10    12    1
    17    10    13    1
    18    15    17    1
    19    18    19   ar
    20    18    20   ar
    21    19    21   ar
    22    19    22    1
    23    20    23   ar
    24    20    24    1
    25    21    25   ar
    26    21    26    1
    27    23    25   ar
    28    23    27    1
    29    25    28   un
    30    28    29   un
    31    28    30   un
    32    31    32    1
    33    31    33    1
    34    31    34    1
@<TRIPOS>SUBSTRUCTURE
     1 1           1 GROUP             0 ****  ****    0  
@<TRIPOS>MOLECULE
Molecule Name_00001_00001_00048
    34    34     1     0     0
SMALL
NO_CHARGES
****
Generated from the CSD

@<TRIPOS>ATOM
     1 C11      1.1133  -0.2846   0.7801   C.3       1 1      0.0000
     2 C12      1.9165   0.2902  -0.3826   C.3       1 1      0.0000
     3 H12A     1.7283   1.3686  -0.4501   H         1 1      0.0000
     4 C13      3.3905   0.0558  -0.2451   C.2       1 1      0.0000
     5 C14      3.9207  -1.2859  -0.6503   C.3       1 1      0.0000
     6 H14B     3.2876  -2.0690  -0.2150   H         1 1      0.0000
     7 H14A     4.9321  -1.4107  -0.2442   H         1 1      0.0000
     8 N        4.1910   0.9843   0.2382   N.pl3     1 1      0.0000
     9 HN       5.1773   0.7384   0.3210   H         1 1      0.0000
    10 C        3.8350   2.3632   0.5395   C.3       1 1      0.0000
    11 HC       4.7168   3.0003   0.5243   H         1 1      0.0000
    12 HB       3.1268   2.7495  -0.1904   H         1 1      0.0000
    13 HA       3.3807   2.4375   1.5253   H         1 1      0.0000
    14 H12B     1.5690  -0.1671  -1.3172   H         1 1      0.0000
    15 O1       1.4379   0.4482   1.9586   O.3       1 1      0.0000
    16 H11      1.3987  -1.3380   0.9249   H         1 1      0.0000
    17 OH1      0.9380   0.0747   2.7259   H         1 1      0.0000
    18 C10     -0.3723  -0.2151   0.4924   C.ar      1 1      0.0000
    19 C9      -0.8406   0.3888  -0.6666   C.ar      1 1      0.0000
    20 C5      -1.2906  -0.7591   1.3803   C.ar      1 1      0.0000
    21 C8      -2.1943   0.4526  -0.9364   C.ar      1 1      0.0000
    22 H9      -0.1341   0.8166  -1.3702   H         1 1      0.0000
    23 C6      -2.6469  -0.7018   1.1222   C.ar      1 1      0.0000
    24 H5      -0.9386  -1.2356   2.2893   H         1 1      0.0000
    25 C7      -3.0988  -0.0941  -0.0391   C.ar      1 1      0.0000
    26 H8      -2.5475   0.9279  -1.8455   H         1 1      0.0000
    27 H6      -3.3543  -1.1302   1.8245   H         1 1      0.0000
    28 NO      -4.4068  -0.0354  -0.2938   N.pl3     1 1      0.0000
    29 ON2     -5.2283  -0.1502   0.6507   O.2       1 1      0.0000
    30 ON1     -4.8016   0.1340  -1.4750   O.2       1 1      0.0000
    31 C15      3.9632  -1.4605  -2.1609   C.3       1 1      0.0000
    32 H15A     4.6031  -0.7087  -2.6181   H         1 1      0.0000
    33 H15C     4.3514  -2.4420  -2.4249   H         1 1      0.0000
    34 H15B     2.9675  -1.3635  -2.5885   H         1 1      0.0000
@<TRIPOS>BOND
     1     1     2    1
     2     1    15    1
     3     1    16    1
     4     1    18    1
     5     2     3    1
     6     2     4    1
     7     2    14    1
     8     4     5    1
     9     4     8    2
    10     5     6    1
    11     5     7    1
    12     5    31    1
    13     8     9    1
    14     8    10    1
    15    10    11    1
    16    10    12    1
    17    10    13    1
    18    15    17    1
    19    18    19   ar
    20    18    20   ar
    21    19    21   ar
    22    19    22    1
    23    20    23   ar
    24    20    24    1
    25    21    25   ar
    26    21    26    1
    27    23    25   ar
    28    23    27    1
    29    25    28   un
    30    28    29   un
    31    28    30   un
    32    31    32    1
    33    31    33    1
    34    31    34    1
@<TRIPOS>SUBSTRUCTURE
     1 1           1 GROUP             0 ****  ****    0  
@<TRIPOS>MOLECULE
Molecule Name_00001_00001_00049
    34    34     1     0     0
SMALL
NO_CHARGES
****
Generated from the CSD

@<TRIPOS>ATOM
     1 C11      1.1834  -0.3172   0.4807   C.3       1 1      0.0000
     2 C12      1.8872   0.5289  -0.5758   C.3       1 1      0.0000
     3 H12A     1.6650   1.5875  -0.3940   H         1 1      0.0000
     4 C13      3.3731   0.3327  -0.5847   C.2       1 1      0.0000
     5 C14      3.9135  -0.8428  -1.3409   C.3       1 1      0.0000
     6 H14B     4.9945  -0.7162  -1.4775   H         1 1      0.0000
     7 H14A     3.4528  -0.8729  -2.3360   H         1 1      0.0000
     8 N        4.1770   1.1473   0.0685   N.pl3     1 1      0.0000
     9 HN       5.1732   0.9321   0.0314   H         1 1      0.0000
    10 C        3.8025   2.3921   0.7236   C.3       1 1      0.0000
    11 HC       4.6612   3.0545   0.8106   H         1 1      0.0000
    12 HB       3.0315   2.9113   0.1585   H         1 1      0.0000
    13 HA       3.4195   2.2013   1.7239   H         1 1      0.0000
    14 H12B     1.4880   0.2704  -1.5643   H         1 1      0.0000
    15 O1       1.5777   0.1491   1.7684   O.3       1 1      0.0000
    16 H11      1.5007  -1.3654   0.3681   H         1 1      0.0000
    17 OH1      1.1432  -0.4024   2.4649   H         1 1      0.0000
    18 C10     -0.3204  -0.2406   0.3152   C.ar      1 1      0.0000
    19 C9      -0.8846   0.5828  -0.6498   C.ar      1 1      0.0000
    20 C5      -1.1599  -0.9966   1.1222   C.ar      1 1      0.0000
    21 C8      -2.2554   0.6546  -0.8079   C.ar      1 1      0.0000
    22 H9      -0.2403   1.1779  -1.2885   H         1 1      0.0000
    23 C6      -2.5323  -0.9337   0.9741   C.ar      1 1      0.0000
    24 H5      -0.7326  -1.6457   1.8793   H         1 1      0.0000
    25 C7      -3.0804  -0.1056   0.0067   C.ar      1 1      0.0000
    26 H8      -2.6839   1.3026  -1.5654   H         1 1      0.0000
    27 H6      -3.1775  -1.5291   1.6116   H         1 1      0.0000
    28 NO      -4.4045  -0.0402  -0.1409   N.pl3     1 1      0.0000
    29 ON2     -5.1521  -0.3863   0.8085   O.2       1 1      0.0000
    30 ON1     -4.8881   0.3666  -1.2274   O.2       1 1      0.0000
    31 C15      3.6512  -2.1609  -0.6282   C.3       1 1      0.0000
    32 H15A     2.6342  -2.5019  -0.8100   H         1 1      0.0000
    33 H15C     4.3348  -2.9315  -0.9786   H         1 1      0.0000
    34 H15B     3.7853  -2.0519   0.4460   H         1 1      0.0000
@<TRIPOS>BOND
     1     1     2    1
     2     1    15    1
     3     1    16    1
     4     1    18    1
     5     2     3    1
     6     2     4    1
     7     2    14    1
     8     4     5    1
     9     4     8    2
    10     5     6    1
    11     5     7    1
    12     5    31    1
    13     8     9    1
    14     8    10    1
    15    10    11    1
    16    10    12    1
    17    10    13    1
    18    15    17    1
    19    18    19   ar
    20    18    20   ar
    21    19    21   ar
    22    19    22    1
    23    20    23   ar
    24    20    24    1
    25    21    25   ar
    26    21    26    1
    27    23    25   ar
    28    23    27    1
    29    25    28   un
    30    28    29   un
    31    28    30   un
    32    31    32    1
    33    31    33    1
    34    31    34    1
@<TRIPOS>SUBSTRUCTURE
     1 1           1 GROUP             0 ****  ****    0  
@<TRIPOS>MOLECULE
Molecule Name_00001_00001_00050
    34    34     1     0     0
SMALL
NO_CHARGES
****
Generated from the CSD

@<TRIPOS>ATOM
     1 C11      1.1016   0.6676  -0.4883   C.3       1 1      0.0000
     2 C12      1.9334  -0.4133   0.1952   C.3       1 1      0.0000
     3 H12A     1.7667  -1.3700  -0.3146   H         1 1      0.0000
     4 C13      3.4003  -0.1060   0.1971   C.2       1 1      0.0000
     5 C14      4.1884  -0.4755  -1.0228   C.3       1 1      0.0000
     6 H14B     5.1724   0.0069  -0.9747   H         1 1      0.0000
     7 H14A     3.6731  -0.0941  -1.9131   H         1 1      0.0000
     8 N        3.9848   0.4456   1.2413   N.pl3     1 1      0.0000
     9 HN       4.9903   0.6015   1.1720   H         1 1      0.0000
    10 C        3.3228   0.9742   2.4250   C.3       1 1      0.0000
    11 HC       3.9014   1.7871   2.8587   H         1 1      0.0000
    12 HB       2.3348   1.3571   2.1788   H         1 1      0.0000
    13 HA       3.2079   0.1999   3.1807   H         1 1      0.0000
    14 H12B     1.5916  -0.5249   1.2316   H         1 1      0.0000
    15 O1       1.4165   0.6679  -1.8782   O.3       1 1      0.0000
    16 H11      1.3688   1.6468  -0.0616   H         1 1      0.0000
    17 OH1      0.8979   1.3769  -2.3326   H         1 1      0.0000
    18 C10     -0.3776   0.4255  -0.2693   C.ar      1 1      0.0000
    19 C9      -0.8168  -0.7077   0.4019   C.ar      1 1      0.0000
    20 C5      -1.3190   1.3354  -0.7312   C.ar      1 1      0.0000
    21 C8      -2.1646  -0.9327   0.6078   C.ar      1 1      0.0000
    22 H9      -0.0920  -1.4263   0.7699   H         1 1      0.0000
    23 C6      -2.6696   1.1219  -0.5318   C.ar      1 1      0.0000
    24 H5      -0.9898   2.2262  -1.2559   H         1 1      0.0000
    25 C7      -3.0924  -0.0153   0.1392   C.ar      1 1      0.0000
    26 H8      -2.4949  -1.8226   1.1332   H         1 1      0.0000
    27 H6      -3.3953   1.8404  -0.8983   H         1 1      0.0000
    28 NO      -4.3947  -0.2271   0.3345   N.pl3     1 1      0.0000
    29 ON2     -5.2342   0.3497  -0.4021   O.2       1 1      0.0000
    30 ON1     -4.7663  -1.0009   1.2527   O.2       1 1      0.0000
    31 C15      4.3754  -1.9790  -1.1589   C.3       1 1      0.0000
    32 H15A     3.4135  -2.4824  -1.2310   H         1 1      0.0000
    33 H15C     4.9502  -2.2170  -2.0515   H         1 1      0.0000
    34 H15B     4.9047  -2.3813  -0.2977   H         1 1      0.0000
@<TRIPOS>BOND
     1     1     2    1
     2     1    15    1
     3     1    16    1
     4     1    18    1
     5     2     3    1
     6     2     4    1
     7     2    14    1
     8     4     5    1
     9     4     8    2
    10     5     6    1
    11     5     7    1
    12     5    31    1
    13     8     9    1
    14     8    10    1
    15    10    11    1
    16    10    12    1
    17    10    13    1
    18    15    17    1
    19    18    19   ar
    20    18    20   ar
    21    19    21   ar
    22    19    22    1
    23    20    23   ar
    24    20    24    1
    25    21    25   ar
    26    21    26    1
    27    23    25   ar
    28    23    27    1
    29    25    28   un
    30    28    29   un
    31    28    30   un
    32    31    32    1
    33    31    33    1
    34    31    34    1
@<TRIPOS>SUBSTRUCTURE
     1 1           1 GROUP             0 ****  ****    0  
@<TRIPOS>MOLECULE
Molecule Name_00001_00001_00051
    34    34     1     0     0
SMALL
NO_CHARGES
****
Generated from the CSD

@<TRIPOS>ATOM
     1 C11      1.1279  -0.0224   0.8149   C.3       1 1      0.0000
     2 C12      1.9170   0.2448  -0.4631   C.3       1 1      0.0000
     3 H12A     1.7026   1.2627  -0.8107   H         1 1      0.0000
     4 C13      3.3962   0.0897  -0.2779   C.2       1 1      0.0000
     5 C14      3.8873  -1.1762   0.3563   C.3       1 1      0.0000
     6 H14B     3.3046  -1.3726   1.2648   H         1 1      0.0000
     7 H14A     4.9352  -1.0464   0.6538   H         1 1      0.0000
     8 N        4.2362   1.0401  -0.6350   N.pl3     1 1      0.0000
     9 HN       5.2249   0.8668  -0.4546   H         1 1      0.0000
    10 C        3.9108   2.2488  -1.3779   C.3       1 1      0.0000
    11 HC       4.7626   2.5780  -1.9693   H         1 1      0.0000
    12 HB       3.0767   2.0758  -2.0545   H         1 1      0.0000
    13 HA       3.6368   3.0554  -0.7011   H         1 1      0.0000
    14 H12B     1.5809  -0.4504  -1.2422   H         1 1      0.0000
    15 O1       1.4451   0.9941   1.7620   O.3       1 1      0.0000
    16 H11      1.4309  -0.9986   1.2241   H         1 1      0.0000
    17 OH1      0.9543   0.8239   2.6036   H         1 1      0.0000
    18 C10     -0.3598  -0.0514   0.5309   C.ar      1 1      0.0000
    19 C9      -0.9055  -1.0354  -0.2824   C.ar      1 1      0.0000
    20 C5      -1.2038   0.9024   1.0836   C.ar      1 1      0.0000
    21 C8      -2.2621  -1.0692  -0.5426   C.ar      1 1      0.0000
    22 H9      -0.2578  -1.7882  -0.7195   H         1 1      0.0000
    23 C6      -2.5622   0.8796   0.8310   C.ar      1 1      0.0000
    24 H5      -0.7913   1.6763   1.7224   H         1 1      0.0000
    25 C7      -3.0916  -0.1088   0.0157   C.ar      1 1      0.0000
    26 H8      -2.6760  -1.8432  -1.1805   H         1 1      0.0000
    27 H6      -3.2110   1.6312   1.2685   H         1 1      0.0000
    28 NO      -4.4019  -0.1359  -0.2322   N.pl3     1 1      0.0000
    29 ON2     -5.0832   0.9096  -0.0819   O.2       1 1      0.0000
    30 ON1     -4.9390  -1.2067  -0.6129   O.2       1 1      0.0000
    31 C15      3.7766  -2.3728  -0.5764   C.3       1 1      0.0000
    32 H15A     4.3640  -2.2144  -1.4784   H         1 1      0.0000
    33 H15C     4.1394  -3.2758  -0.0899   H         1 1      0.0000
    34 H15B     2.7422  -2.5384  -0.8702   H         1 1      0.0000
@<TRIPOS>BOND
     1     1     2    1
     2     1    15    1
     3     1    16    1
     4     1    18    1
     5     2     3    1
     6     2     4    1
     7     2    14    1
     8     4     5    1
     9     4     8    2
    10     5     6    1
    11     5     7    1
    12     5    31    1
    13     8     9    1
    14     8    10    1
    15    10    11    1
    16    10    12    1
    17    10    13    1
    18    15    17    1
    19    18    19   ar
    20    18    20   ar
    21    19    21   ar
    22    19    22    1
    23    20    23   ar
    24    20    24    1
    25    21    25   ar
    26    21    26    1
    27    23    25   ar
    28    23    27    1
    29    25    28   un
    30    28    29   un
    31    28    30   un
    32    31    32    1
    33    31    33    1
    34    31    34    1
@<TRIPOS>SUBSTRUCTURE
     1 1           1 GROUP             0 ****  ****    0  
@<TRIPOS>MOLECULE
Molecule Name_00001_00001_00052
    34    34     1     0     0
SMALL
NO_CHARGES
****
Generated from the CSD

@<TRIPOS>ATOM
     1 C11      1.1285  -0.0244   0.8181   C.3       1 1      0.0000
     2 C12      1.9148   0.2431  -0.4616   C.3       1 1      0.0000
     3 H12A     1.6983   1.2605  -0.8094   H         1 1      0.0000
     4 C13      3.3946   0.0901  -0.2791   C.2       1 1      0.0000
     5 C14      3.8886  -1.1746   0.3549   C.3       1 1      0.0000
     6 H14B     3.3079  -1.3713   1.2646   H         1 1      0.0000
     7 H14A     4.9369  -1.0433   0.6502   H         1 1      0.0000
     8 N        4.2325   1.0415  -0.6384   N.pl3     1 1      0.0000
     9 HN       5.2218   0.8696  -0.4599   H         1 1      0.0000
    10 C        3.9040   2.2493  -1.3815   C.3       1 1      0.0000
    11 HC       4.7543   2.5793  -1.9747   H         1 1      0.0000
    12 HB       3.0689   2.0747  -2.0564   H         1 1      0.0000
    13 HA       3.6303   3.0560  -0.7046   H         1 1      0.0000
    14 H12B     1.5781  -0.4530  -1.2396   H         1 1      0.0000
    15 O1       1.4462   0.9931   1.7640   O.3       1 1      0.0000
    16 H11      1.4337  -0.9999   1.2273   H         1 1      0.0000
    17 OH1      0.9573   0.8228   2.6067   H         1 1      0.0000
    18 C10     -0.3597  -0.0555   0.5370   C.ar      1 1      0.0000
    19 C9      -1.2032   0.9008   1.0862   C.ar      1 1      0.0000
    20 C5      -0.9048  -1.0376  -0.2790   C.ar      1 1      0.0000
    21 C8      -2.5610   0.8798   0.8311   C.ar      1 1      0.0000
    22 H9      -0.7905   1.6752   1.7244   H         1 1      0.0000
    23 C6      -2.2610  -1.0695  -0.5419   C.ar      1 1      0.0000
    24 H5      -0.2571  -1.7903  -0.7163   H         1 1      0.0000
    25 C7      -3.0903  -0.1082   0.0151   C.ar      1 1      0.0000
    26 H8      -3.2096   1.6326   1.2669   H         1 1      0.0000
    27 H6      -2.6747  -1.8428  -1.1808   H         1 1      0.0000
    28 NO      -4.4003  -0.1339  -0.2346   N.pl3     1 1      0.0000
    29 ON2     -4.9380  -1.2042  -0.6158   O.2       1 1      0.0000
    30 ON1     -5.0807   0.9124  -0.0854   O.2       1 1      0.0000
    31 C15      3.7777  -2.3720  -0.5769   C.3       1 1      0.0000
    32 H15A     4.3631  -2.2133  -1.4801   H         1 1      0.0000
    33 H15C     4.1427  -3.2742  -0.0906   H         1 1      0.0000
    34 H15B     2.7430  -2.5391  -0.8686   H         1 1      0.0000
@<TRIPOS>BOND
     1     1     2    1
     2     1    15    1
     3     1    16    1
     4     1    18    1
     5     2     3    1
     6     2     4    1
     7     2    14    1
     8     4     5    1
     9     4     8    2
    10     5     6    1
    11     5     7    1
    12     5    31    1
    13     8     9    1
    14     8    10    1
    15    10    11    1
    16    10    12    1
    17    10    13    1
    18    15    17    1
    19    18    19   ar
    20    18    20   ar
    21    19    21   ar
    22    19    22    1
    23    20    23   ar
    24    20    24    1
    25    21    25   ar
    26    21    26    1
    27    23    25   ar
    28    23    27    1
    29    25    28   un
    30    28    29   un
    31    28    30   un
    32    31    32    1
    33    31    33    1
    34    31    34    1
@<TRIPOS>SUBSTRUCTURE
     1 1           1 GROUP             0 ****  ****    0  
@<TRIPOS>MOLECULE
Molecule Name_00001_00001_00053
    34    34     1     0     0
SMALL
NO_CHARGES
****
Generated from the CSD

@<TRIPOS>ATOM
     1 C11      1.1687  -0.2328   0.5523   C.3       1 1      0.0000
     2 C12      1.8732   0.1928  -0.7321   C.3       1 1      0.0000
     3 H12A     1.6614   1.2519  -0.9233   H         1 1      0.0000
     4 C13      3.3572  -0.0100  -0.6776   C.2       1 1      0.0000
     5 C14      3.8586  -1.3534  -0.2423   C.3       1 1      0.0000
     6 H14B     4.8892  -1.4839  -0.5947   H         1 1      0.0000
     7 H14A     3.2453  -2.1346  -0.7083   H         1 1      0.0000
     8 N        4.1944   0.9628  -0.9762   N.pl3     1 1      0.0000
     9 HN       5.1885   0.7511  -0.8924   H         1 1      0.0000
    10 C        3.8490   2.2602  -1.5385   C.3       1 1      0.0000
    11 HC       4.6649   2.6457  -2.1464   H         1 1      0.0000
    12 HB       2.9645   2.1875  -2.1675   H         1 1      0.0000
    13 HA       3.6455   2.9807  -0.7490   H         1 1      0.0000
    14 H12B     1.4655  -0.3845  -1.5711   H         1 1      0.0000
    15 O1       1.5952   0.6259   1.6068   O.3       1 1      0.0000
    16 H11      1.4604  -1.2666   0.7938   H         1 1      0.0000
    17 OH1      1.1603   0.3504   2.4512   H         1 1      0.0000
    18 C10     -0.3357  -0.1756   0.3837   C.ar      1 1      0.0000
    19 C9      -0.9787  -1.0147  -0.5163   C.ar      1 1      0.0000
    20 C5      -1.0976   0.7131   1.1302   C.ar      1 1      0.0000
    21 C8      -2.3509  -0.9696  -0.6724   C.ar      1 1      0.0000
    22 H9      -0.3959  -1.7153  -1.1050   H         1 1      0.0000
    23 C6      -2.4704   0.7679   0.9834   C.ar      1 1      0.0000
    24 H5      -0.6083   1.3735   1.8386   H         1 1      0.0000
    25 C7      -3.0977  -0.0757   0.0795   C.ar      1 1      0.0000
    26 H8      -2.8414  -1.6303  -1.3796   H         1 1      0.0000
    27 H6      -3.0544   1.4674   1.5724   H         1 1      0.0000
    28 NO      -4.4226  -0.0272  -0.0670   N.pl3     1 1      0.0000
    29 ON2     -5.0478   1.0056   0.2828   O.2       1 1      0.0000
    30 ON1     -5.0293  -1.0149  -0.5531   O.2       1 1      0.0000
    31 C15      3.8222  -1.5241   1.2689   C.3       1 1      0.0000
    32 H15A     3.0172  -2.1947   1.5620   H         1 1      0.0000
    33 H15C     4.7594  -1.9402   1.6327   H         1 1      0.0000
    34 H15B     3.6625  -0.5672   1.7613   H         1 1      0.0000
@<TRIPOS>BOND
     1     1     2    1
     2     1    15    1
     3     1    16    1
     4     1    18    1
     5     2     3    1
     6     2     4    1
     7     2    14    1
     8     4     5    1
     9     4     8    2
    10     5     6    1
    11     5     7    1
    12     5    31    1
    13     8     9    1
    14     8    10    1
    15    10    11    1
    16    10    12    1
    17    10    13    1
    18    15    17    1
    19    18    19   ar
    20    18    20   ar
    21    19    21   ar
    22    19    22    1
    23    20    23   ar
    24    20    24    1
    25    21    25   ar
    26    21    26    1
    27    23    25   ar
    28    23    27    1
    29    25    28   un
    30    28    29   un
    31    28    30   un
    32    31    32    1
    33    31    33    1
    34    31    34    1
@<TRIPOS>SUBSTRUCTURE
     1 1           1 GROUP             0 ****  ****    0  
@<TRIPOS>MOLECULE
Molecule Name_00001_00001_00054
    34    34     1     0     0
SMALL
NO_CHARGES
****
Generated from the CSD

@<TRIPOS>ATOM
     1 C11      1.1693  -0.2352   0.5553   C.3       1 1      0.0000
     2 C12      1.8709   0.1905  -0.7307   C.3       1 1      0.0000
     3 H12A     1.6571   1.2491  -0.9223   H         1 1      0.0000
     4 C13      3.3553  -0.0099  -0.6786   C.2       1 1      0.0000
     5 C14      3.8596  -1.3522  -0.2432   C.3       1 1      0.0000
     6 H14B     4.8898  -1.4812  -0.5973   H         1 1      0.0000
     7 H14A     3.2467  -2.1346  -0.7076   H         1 1      0.0000
     8 N        4.1904   0.9640  -0.9794   N.pl3     1 1      0.0000
     9 HN       5.1850   0.7540  -0.8972   H         1 1      0.0000
    10 C        3.8419   2.2605  -1.5420   C.3       1 1      0.0000
    11 HC       4.6561   2.6468  -2.1516   H         1 1      0.0000
    12 HB       2.9564   2.1859  -2.1695   H         1 1      0.0000
    13 HA       3.6387   2.9813  -0.7528   H         1 1      0.0000
    14 H12B     1.4626  -0.3881  -1.5685   H         1 1      0.0000
    15 O1       1.5962   0.6249   1.6083   O.3       1 1      0.0000
    16 H11      1.4631  -1.2684   0.7971   H         1 1      0.0000
    17 OH1      1.1633   0.3494   2.4538   H         1 1      0.0000
    18 C10     -0.3355  -0.1805   0.3892   C.ar      1 1      0.0000
    19 C9      -1.0969   0.7114   1.1324   C.ar      1 1      0.0000
    20 C5      -0.9782  -1.0175  -0.5129   C.ar      1 1      0.0000
    21 C8      -2.4694   0.7685   0.9832   C.ar      1 1      0.0000
    22 H9      -0.6075   1.3726   1.8399   H         1 1      0.0000
    23 C6      -2.3500  -0.9702  -0.6714   C.ar      1 1      0.0000
    24 H5      -0.3954  -1.7183  -1.1015   H         1 1      0.0000
    25 C7      -3.0966  -0.0749   0.0791   C.ar      1 1      0.0000
    26 H8      -3.0531   1.4696   1.5705   H         1 1      0.0000
    27 H6      -2.8404  -1.6302  -1.3794   H         1 1      0.0000
    28 NO      -4.4212  -0.0247  -0.0691   N.pl3     1 1      0.0000
    29 ON2     -5.0286  -1.0119  -0.5554   O.2       1 1      0.0000
    30 ON1     -5.0455   1.0091   0.2793   O.2       1 1      0.0000
    31 C15      3.8261  -1.5217   1.2682   C.3       1 1      0.0000
    32 H15A     3.0227  -2.1934   1.5632   H         1 1      0.0000
    33 H15C     4.7646  -1.9361   1.6306   H         1 1      0.0000
    34 H15B     3.6657  -0.5647   1.7602   H         1 1      0.0000
@<TRIPOS>BOND
     1     1     2    1
     2     1    15    1
     3     1    16    1
     4     1    18    1
     5     2     3    1
     6     2     4    1
     7     2    14    1
     8     4     5    1
     9     4     8    2
    10     5     6    1
    11     5     7    1
    12     5    31    1
    13     8     9    1
    14     8    10    1
    15    10    11    1
    16    10    12    1
    17    10    13    1
    18    15    17    1
    19    18    19   ar
    20    18    20   ar
    21    19    21   ar
    22    19    22    1
    23    20    23   ar
    24    20    24    1
    25    21    25   ar
    26    21    26    1
    27    23    25   ar
    28    23    27    1
    29    25    28   un
    30    28    29   un
    31    28    30   un
    32    31    32    1
    33    31    33    1
    34    31    34    1
@<TRIPOS>SUBSTRUCTURE
     1 1           1 GROUP             0 ****  ****    0  
@<TRIPOS>MOLECULE
Molecule Name_00001_00001_00055
    34    34     1     0     0
SMALL
NO_CHARGES
****
Generated from the CSD

@<TRIPOS>ATOM
     1 C11      1.0759   0.0658  -0.8501   C.3       1 1      0.0000
     2 C12      1.9556  -0.1925   0.3693   C.3       1 1      0.0000
     3 H12A     1.8142  -1.2285   0.7004   H         1 1      0.0000
     4 C13      3.4108   0.0432   0.0986   C.2       1 1      0.0000
     5 C14      4.3144  -1.1520   0.0732   C.3       1 1      0.0000
     6 H14B     5.2807  -0.8629  -0.3581   H         1 1      0.0000
     7 H14A     3.8762  -1.9205  -0.5755   H         1 1      0.0000
     8 N        3.8868   1.2580  -0.0855   N.pl3     1 1      0.0000
     9 HN       4.8917   1.3356  -0.2415   H         1 1      0.0000
    10 C        3.1094   2.4812  -0.2208   C.3       1 1      0.0000
    11 HC       2.9202   2.7029  -1.2690   H         1 1      0.0000
    12 HB       2.1499   2.3889   0.2833   H         1 1      0.0000
    13 HA       3.6408   3.3257   0.2132   H         1 1      0.0000
    14 H12B     1.6345   0.4647   1.1868   H         1 1      0.0000
    15 O1       1.3557  -0.9324  -1.8280   O.3       1 1      0.0000
    16 H11      1.3251   1.0538  -1.2672   H         1 1      0.0000
    17 OH1      0.8054  -0.7673  -2.6330   H         1 1      0.0000
    18 C10     -0.3897   0.0517  -0.4673   C.ar      1 1      0.0000
    19 C9      -0.9054   1.0127   0.3919   C.ar      1 1      0.0000
    20 C5      -1.2434  -0.9190  -0.9735   C.ar      1 1      0.0000
    21 C8      -2.2420   1.0072   0.7424   C.ar      1 1      0.0000
    22 H9      -0.2500   1.7783   0.7937   H         1 1      0.0000
    23 C6      -2.5819  -0.9354  -0.6308   C.ar      1 1      0.0000
    24 H5      -0.8543  -1.6751  -1.6474   H         1 1      0.0000
    25 C7      -3.0814   0.0303   0.2294   C.ar      1 1      0.0000
    26 H8      -2.6325   1.7634   1.4153   H         1 1      0.0000
    27 H6      -3.2385  -1.7000  -1.0328   H         1 1      0.0000
    28 NO      -4.3725   0.0195   0.5643   N.pl3     1 1      0.0000
    29 ON2     -5.0346  -1.0425   0.4477   O.2       1 1      0.0000
    30 ON1     -4.9109   1.0716   0.9924   O.2       1 1      0.0000
    31 C15      4.5411  -1.7371   1.4590   C.3       1 1      0.0000
    32 H15A     3.5995  -2.0534   1.9029   H         1 1      0.0000
    33 H15C     5.1999  -2.6016   1.4096   H         1 1      0.0000
    34 H15B     4.9965  -1.0012   2.1185   H         1 1      0.0000
@<TRIPOS>BOND
     1     1     2    1
     2     1    15    1
     3     1    16    1
     4     1    18    1
     5     2     3    1
     6     2     4    1
     7     2    14    1
     8     4     5    1
     9     4     8    2
    10     5     6    1
    11     5     7    1
    12     5    31    1
    13     8     9    1
    14     8    10    1
    15    10    11    1
    16    10    12    1
    17    10    13    1
    18    15    17    1
    19    18    19   ar
    20    18    20   ar
    21    19    21   ar
    22    19    22    1
    23    20    23   ar
    24    20    24    1
    25    21    25   ar
    26    21    26    1
    27    23    25   ar
    28    23    27    1
    29    25    28   un
    30    28    29   un
    31    28    30   un
    32    31    32    1
    33    31    33    1
    34    31    34    1
@<TRIPOS>SUBSTRUCTURE
     1 1           1 GROUP             0 ****  ****    0  
@<TRIPOS>MOLECULE
Molecule Name_00001_00001_00056
    34    34     1     0     0
SMALL
NO_CHARGES
****
Generated from the CSD

@<TRIPOS>ATOM
     1 C11      1.0763   0.0700  -0.8531   C.3       1 1      0.0000
     2 C12      1.9532  -0.1919   0.3675   C.3       1 1      0.0000
     3 H12A     1.8097  -1.2283   0.6964   H         1 1      0.0000
     4 C13      3.4092   0.0423   0.1002   C.2       1 1      0.0000
     5 C14      4.3112  -1.1541   0.0743   C.3       1 1      0.0000
     6 H14B     5.2788  -0.8655  -0.3545   H         1 1      0.0000
     7 H14A     3.8733  -1.9208  -0.5767   H         1 1      0.0000
     8 N        3.8873   1.2568  -0.0807   N.pl3     1 1      0.0000
     9 HN       4.8926   1.3332  -0.2346   H         1 1      0.0000
    10 C        3.1119   2.4813  -0.2151   C.3       1 1      0.0000
    11 HC       2.9254   2.7054  -1.2633   H         1 1      0.0000
    12 HB       2.1511   2.3893   0.2866   H         1 1      0.0000
    13 HA       3.6434   3.3242   0.2218   H         1 1      0.0000
    14 H12B     1.6313   0.4642   1.1857   H         1 1      0.0000
    15 O1       1.3566  -0.9268  -1.8323   O.3       1 1      0.0000
    16 H11      1.3277   1.0584  -1.2678   H         1 1      0.0000
    17 OH1      0.8081  -0.7594  -2.6381   H         1 1      0.0000
    18 C10     -0.3901   0.0572  -0.4732   C.ar      1 1      0.0000
    19 C9      -1.2430  -0.9148  -0.9785   C.ar      1 1      0.0000
    20 C5      -0.9050   1.0140   0.3911   C.ar      1 1      0.0000
    21 C8      -2.5808  -0.9338  -0.6334   C.ar      1 1      0.0000
    22 H9      -0.8537  -1.6697  -1.6537   H         1 1      0.0000
    23 C6      -2.2410   1.0058   0.7440   C.ar      1 1      0.0000
    24 H5      -0.2495   1.7785   0.7949   H         1 1      0.0000
    25 C7      -3.0801   0.0293   0.2298   C.ar      1 1      0.0000
    26 H8      -3.2371  -1.6985  -1.0357   H         1 1      0.0000
    27 H6      -2.6311   1.7596   1.4199   H         1 1      0.0000
    28 NO      -4.3707   0.0164   0.5664   N.pl3     1 1      0.0000
    29 ON2     -4.9097   1.0668   0.9978   O.2       1 1      0.0000
    30 ON1     -5.0319  -1.0461   0.4481   O.2       1 1      0.0000
    31 C15      4.5344  -1.7421   1.4594   C.3       1 1      0.0000
    32 H15A     3.5915  -2.0580   1.9008   H         1 1      0.0000
    33 H15C     5.1920  -2.6075   1.4097   H         1 1      0.0000
    34 H15B     4.9894  -1.0082   2.1212   H         1 1      0.0000
@<TRIPOS>BOND
     1     1     2    1
     2     1    15    1
     3     1    16    1
     4     1    18    1
     5     2     3    1
     6     2     4    1
     7     2    14    1
     8     4     5    1
     9     4     8    2
    10     5     6    1
    11     5     7    1
    12     5    31    1
    13     8     9    1
    14     8    10    1
    15    10    11    1
    16    10    12    1
    17    10    13    1
    18    15    17    1
    19    18    19   ar
    20    18    20   ar
    21    19    21   ar
    22    19    22    1
    23    20    23   ar
    24    20    24    1
    25    21    25   ar
    26    21    26    1
    27    23    25   ar
    28    23    27    1
    29    25    28   un
    30    28    29   un
    31    28    30   un
    32    31    32    1
    33    31    33    1
    34    31    34    1
@<TRIPOS>SUBSTRUCTURE
     1 1           1 GROUP             0 ****  ****    0  
@<TRIPOS>MOLECULE
Molecule Name_00001_00001_00057
    34    34     1     0     0
SMALL
NO_CHARGES
****
Generated from the CSD

@<TRIPOS>ATOM
     1 C11      1.3321  -0.1228   1.8264   C.3       1 1      0.0000
     2 C12      2.3825   0.6359   1.0212   C.3       1 1      0.0000
     3 H12A     3.3268   0.6417   1.5790   H         1 1      0.0000
     4 C13      2.6164   0.0439  -0.3357   C.2       1 1      0.0000
     5 C14      2.9411  -1.4172  -0.4089   C.3       1 1      0.0000
     6 H14B     2.1119  -1.9917   0.0221   H         1 1      0.0000
     7 H14A     3.8350  -1.6177   0.1946   H         1 1      0.0000
     8 N        2.5646   0.7831  -1.4254   N.pl3     1 1      0.0000
     9 HN       2.7580   0.3095  -2.3077   H         1 1      0.0000
    10 C        2.1310   2.1700  -1.5109   C.3       1 1      0.0000
    11 HC       1.7709   2.3995  -2.5116   H         1 1      0.0000
    12 HB       1.3248   2.3686  -0.8081   H         1 1      0.0000
    13 HA       2.9530   2.8456  -1.2838   H         1 1      0.0000
    14 H12B     2.0589   1.6775   0.9043   H         1 1      0.0000
    15 O1       1.2356   0.4734   3.1173   O.3       1 1      0.0000
    16 H11      1.6561  -1.1690   1.9398   H         1 1      0.0000
    17 OH1      0.5706  -0.0199   3.6582   H         1 1      0.0000
    18 C10     -0.0071  -0.0993   1.1187   C.ar      1 1      0.0000
    19 C9      -0.6680  -1.2822   0.8164   C.ar      1 1      0.0000
    20 C5      -0.5990   1.1059   0.7654   C.ar      1 1      0.0000
    21 C8      -1.8912  -1.2673   0.1739   C.ar      1 1      0.0000
    22 H9      -0.2178  -2.2312   1.0882   H         1 1      0.0000
    23 C6      -1.8218   1.1342   0.1226   C.ar      1 1      0.0000
    24 H5      -0.0945   2.0381   0.9971   H         1 1      0.0000
    25 C7      -2.4686  -0.0557  -0.1736   C.ar      1 1      0.0000
    26 H8      -2.3972  -2.1988  -0.0574   H         1 1      0.0000
    27 H6      -2.2735   2.0827  -0.1488   H         1 1      0.0000
    28 NO      -3.6491  -0.0349  -0.7942   N.pl3     1 1      0.0000
    29 ON2     -3.9843   0.9802  -1.4554   O.2       1 1      0.0000
    30 ON1     -4.4116  -1.0306  -0.7102   O.2       1 1      0.0000
    31 C15      3.1851  -1.8862  -1.8353   C.3       1 1      0.0000
    32 H15A     4.0185  -1.3473  -2.2812   H         1 1      0.0000
    33 H15C     3.4179  -2.9488  -1.8575   H         1 1      0.0000
    34 H15B     2.3046  -1.7192  -2.4522   H         1 1      0.0000
@<TRIPOS>BOND
     1     1     2    1
     2     1    15    1
     3     1    16    1
     4     1    18    1
     5     2     3    1
     6     2     4    1
     7     2    14    1
     8     4     5    1
     9     4     8    2
    10     5     6    1
    11     5     7    1
    12     5    31    1
    13     8     9    1
    14     8    10    1
    15    10    11    1
    16    10    12    1
    17    10    13    1
    18    15    17    1
    19    18    19   ar
    20    18    20   ar
    21    19    21   ar
    22    19    22    1
    23    20    23   ar
    24    20    24    1
    25    21    25   ar
    26    21    26    1
    27    23    25   ar
    28    23    27    1
    29    25    28   un
    30    28    29   un
    31    28    30   un
    32    31    32    1
    33    31    33    1
    34    31    34    1
@<TRIPOS>SUBSTRUCTURE
     1 1           1 GROUP             0 ****  ****    0  
@<TRIPOS>MOLECULE
Molecule Name_00001_00001_00058
    34    34     1     0     0
SMALL
NO_CHARGES
****
Generated from the CSD

@<TRIPOS>ATOM
     1 C11      1.3336  -0.1222   1.8289   C.3       1 1      0.0000
     2 C12      2.3819   0.6362   1.0207   C.3       1 1      0.0000
     3 H12A     3.3277   0.6421   1.5760   H         1 1      0.0000
     4 C13      2.6123   0.0439  -0.3367   C.2       1 1      0.0000
     5 C14      2.9367  -1.4173  -0.4103   C.3       1 1      0.0000
     6 H14B     2.1086  -1.9916   0.0231   H         1 1      0.0000
     7 H14A     3.8321  -1.6177   0.1909   H         1 1      0.0000
     8 N        2.5576   0.7827  -1.4264   N.pl3     1 1      0.0000
     9 HN       2.7487   0.3089  -2.3091   H         1 1      0.0000
    10 C        2.1239   2.1697  -1.5112   C.3       1 1      0.0000
    11 HC       1.7609   2.3989  -2.5109   H         1 1      0.0000
    12 HB       1.3196   2.3685  -0.8062   H         1 1      0.0000
    13 HA       2.9466   2.8453  -1.2866   H         1 1      0.0000
    14 H12B     2.0582   1.6779   0.9043   H         1 1      0.0000
    15 O1       1.2406   0.4744   3.1198   O.3       1 1      0.0000
    16 H11      1.6579  -1.1683   1.9417   H         1 1      0.0000
    17 OH1      0.5770  -0.0187   3.6627   H         1 1      0.0000
    18 C10     -0.0074  -0.0987   1.1247   C.ar      1 1      0.0000
    19 C9      -0.5975   1.1061   0.7676   C.ar      1 1      0.0000
    20 C5      -0.6665  -1.2819   0.8195   C.ar      1 1      0.0000
    21 C8      -1.8191   1.1342   0.1223   C.ar      1 1      0.0000
    22 H9      -0.0928   2.0384   0.9985   H         1 1      0.0000
    23 C6      -1.8884  -1.2674   0.1744   C.ar      1 1      0.0000
    24 H5      -0.2161  -2.2309   1.0911   H         1 1      0.0000
    25 C7      -2.4654  -0.0559  -0.1744   C.ar      1 1      0.0000
    26 H8      -2.2700   2.0825  -0.1508   H         1 1      0.0000
    27 H6      -2.3937  -2.1990  -0.0579   H         1 1      0.0000
    28 NO      -3.6449  -0.0353  -0.7969   N.pl3     1 1      0.0000
    29 ON2     -4.4075  -1.0310  -0.7136   O.2       1 1      0.0000
    30 ON1     -3.9790   0.9795  -1.4590   O.2       1 1      0.0000
    31 C15      3.1769  -1.8867  -1.8372   C.3       1 1      0.0000
    32 H15A     4.0091  -1.3480  -2.2855   H         1 1      0.0000
    33 H15C     3.4095  -2.9493  -1.8597   H         1 1      0.0000
    34 H15B     2.2947  -1.7198  -2.4518   H         1 1      0.0000
@<TRIPOS>BOND
     1     1     2    1
     2     1    15    1
     3     1    16    1
     4     1    18    1
     5     2     3    1
     6     2     4    1
     7     2    14    1
     8     4     5    1
     9     4     8    2
    10     5     6    1
    11     5     7    1
    12     5    31    1
    13     8     9    1
    14     8    10    1
    15    10    11    1
    16    10    12    1
    17    10    13    1
    18    15    17    1
    19    18    19   ar
    20    18    20   ar
    21    19    21   ar
    22    19    22    1
    23    20    23   ar
    24    20    24    1
    25    21    25   ar
    26    21    26    1
    27    23    25   ar
    28    23    27    1
    29    25    28   un
    30    28    29   un
    31    28    30   un
    32    31    32    1
    33    31    33    1
    34    31    34    1
@<TRIPOS>SUBSTRUCTURE
     1 1           1 GROUP             0 ****  ****    0  
@<TRIPOS>MOLECULE
Molecule Name_00001_00001_00059
    34    34     1     0     0
SMALL
NO_CHARGES
****
Generated from the CSD

@<TRIPOS>ATOM
     1 C11      1.1134   0.1985  -0.5572   C.3       1 1      0.0000
     2 C12      1.8773  -0.0362   0.7424   C.3       1 1      0.0000
     3 H12A     1.5468  -0.9830   1.1865   H         1 1      0.0000
     4 C13      3.3626  -0.0768   0.5462   C.2       1 1      0.0000
     5 C14      3.9719  -1.3802   0.1269   C.3       1 1      0.0000
     6 H14B     3.2461  -2.1859   0.2923   H         1 1      0.0000
     7 H14A     4.8478  -1.5862   0.7544   H         1 1      0.0000
     8 N        4.1124   0.9858   0.7584   N.pl3     1 1      0.0000
     9 HN       5.1168   0.8697   0.6247   H         1 1      0.0000
    10 C        3.6427   2.3359   1.0332   C.3       1 1      0.0000
    11 HC       4.3548   3.0728   0.6678   H         1 1      0.0000
    12 HB       2.6868   2.5205   0.5480   H         1 1      0.0000
    13 HA       3.5155   2.4895   2.1028   H         1 1      0.0000
    14 H12B     1.6333   0.7660   1.4498   H         1 1      0.0000
    15 O1       1.5204  -0.7858  -1.5040   O.3       1 1      0.0000
    16 H11      1.3697   1.1959  -0.9467   H         1 1      0.0000
    17 OH1      1.0466  -0.6352  -2.3589   H         1 1      0.0000
    18 C10     -0.3814   0.1349  -0.3201   C.ar      1 1      0.0000
    19 C9      -1.2008   1.1948  -0.6845   C.ar      1 1      0.0000
    20 C5      -0.9582  -0.9866   0.2604   C.ar      1 1      0.0000
    21 C8      -2.5655   1.1416  -0.4739   C.ar      1 1      0.0000
    22 H9      -0.7638   2.0768  -1.1408   H         1 1      0.0000
    23 C6      -2.3214  -1.0521   0.4764   C.ar      1 1      0.0000
    24 H5      -0.3299  -1.8230   0.5486   H         1 1      0.0000
    25 C7      -3.1261   0.0151   0.1082   C.ar      1 1      0.0000
    26 H8      -3.1948   1.9769  -0.7626   H         1 1      0.0000
    27 H6      -2.7598  -1.9341   0.9316   H         1 1      0.0000
    28 NO      -4.4427  -0.0420   0.3143   N.pl3     1 1      0.0000
    29 ON2     -4.9021  -0.8376   1.1721   O.2       1 1      0.0000
    30 ON1     -5.2075   0.7006  -0.3517   O.2       1 1      0.0000
    31 C15      4.3929  -1.3797  -1.3350   C.3       1 1      0.0000
    32 H15A     5.4770  -1.4026  -1.4241   H         1 1      0.0000
    33 H15C     3.9918  -2.2489  -1.8521   H         1 1      0.0000
    34 H15B     4.0300  -0.4872  -1.8405   H         1 1      0.0000
@<TRIPOS>BOND
     1     1     2    1
     2     1    15    1
     3     1    16    1
     4     1    18    1
     5     2     3    1
     6     2     4    1
     7     2    14    1
     8     4     5    1
     9     4     8    2
    10     5     6    1
    11     5     7    1
    12     5    31    1
    13     8     9    1
    14     8    10    1
    15    10    11    1
    16    10    12    1
    17    10    13    1
    18    15    17    1
    19    18    19   ar
    20    18    20   ar
    21    19    21   ar
    22    19    22    1
    23    20    23   ar
    24    20    24    1
    25    21    25   ar
    26    21    26    1
    27    23    25   ar
    28    23    27    1
    29    25    28   un
    30    28    29   un
    31    28    30   un
    32    31    32    1
    33    31    33    1
    34    31    34    1
@<TRIPOS>SUBSTRUCTURE
     1 1           1 GROUP             0 ****  ****    0  
@<TRIPOS>MOLECULE
Molecule Name_00001_00001_00060
    34    34     1     0     0
SMALL
NO_CHARGES
****
Generated from the CSD

@<TRIPOS>ATOM
     1 C11      1.1137   0.1967  -0.5608   C.3       1 1      0.0000
     2 C12      1.8748  -0.0371   0.7404   C.3       1 1      0.0000
     3 H12A     1.5442  -0.9841   1.1841   H         1 1      0.0000
     4 C13      3.3606  -0.0765   0.5476   C.2       1 1      0.0000
     5 C14      3.9720  -1.3793   0.1299   C.3       1 1      0.0000
     6 H14B     3.2466  -2.1857   0.2939   H         1 1      0.0000
     7 H14A     4.8467  -1.5845   0.7594   H         1 1      0.0000
     8 N        4.1090   0.9869   0.7612   N.pl3     1 1      0.0000
     9 HN       5.1138   0.8717   0.6297   H         1 1      0.0000
    10 C        3.6375   2.3366   1.0347   C.3       1 1      0.0000
    11 HC       4.3498   3.0741   0.6708   H         1 1      0.0000
    12 HB       2.6825   2.5203   0.5473   H         1 1      0.0000
    13 HA       3.5077   2.4904   2.1040   H         1 1      0.0000
    14 H12B     1.6286   0.7650   1.4471   H         1 1      0.0000
    15 O1       1.5237  -0.7875  -1.5065   O.3       1 1      0.0000
    16 H11      1.3699   1.1942  -0.9500   H         1 1      0.0000
    17 OH1      1.0516  -0.6375  -2.3626   H         1 1      0.0000
    18 C10     -0.3816   0.1318  -0.3271   C.ar      1 1      0.0000
    19 C9      -0.9580  -0.9878   0.2575   C.ar      1 1      0.0000
    20 C5      -1.2005   1.1931  -0.6884   C.ar      1 1      0.0000
    21 C8      -2.3208  -1.0519   0.4763   C.ar      1 1      0.0000
    22 H9      -0.3298  -1.8239   0.5464   H         1 1      0.0000
    23 C6      -2.5647   1.1414  -0.4750   C.ar      1 1      0.0000
    24 H5      -0.7633   2.0751  -1.1447   H         1 1      0.0000
    25 C7      -3.1253   0.0157   0.1087   C.ar      1 1      0.0000
    26 H8      -2.7590  -1.9329   0.9335   H         1 1      0.0000
    27 H6      -3.1938   1.9774  -0.7625   H         1 1      0.0000
    28 NO      -4.4416  -0.0403   0.3170   N.pl3     1 1      0.0000
    29 ON2     -5.2069   0.7024  -0.3483   O.2       1 1      0.0000
    30 ON1     -4.9002  -0.8351   1.1760   O.2       1 1      0.0000
    31 C15      4.3962  -1.3788  -1.3310   C.3       1 1      0.0000
    32 H15A     5.4806  -1.4008  -1.4177   H         1 1      0.0000
    33 H15C     3.9971  -2.2485  -1.8488   H         1 1      0.0000
    34 H15B     4.0337  -0.4868  -1.8375   H         1 1      0.0000
@<TRIPOS>BOND
     1     1     2    1
     2     1    15    1
     3     1    16    1
     4     1    18    1
     5     2     3    1
     6     2     4    1
     7     2    14    1
     8     4     5    1
     9     4     8    2
    10     5     6    1
    11     5     7    1
    12     5    31    1
    13     8     9    1
    14     8    10    1
    15    10    11    1
    16    10    12    1
    17    10    13    1
    18    15    17    1
    19    18    19   ar
    20    18    20   ar
    21    19    21   ar
    22    19    22    1
    23    20    23   ar
    24    20    24    1
    25    21    25   ar
    26    21    26    1
    27    23    25   ar
    28    23    27    1
    29    25    28   un
    30    28    29   un
    31    28    30   un
    32    31    32    1
    33    31    33    1
    34    31    34    1
@<TRIPOS>SUBSTRUCTURE
     1 1           1 GROUP             0 ****  ****    0  
@<TRIPOS>MOLECULE
Molecule Name_00001_00001_00061
    34    34     1     0     0
SMALL
NO_CHARGES
****
Generated from the CSD

@<TRIPOS>ATOM
     1 C11      1.0611  -0.1300   0.7235   C.3       1 1      0.0000
     2 C12      1.7951  -0.3912  -0.5881   C.3       1 1      0.0000
     3 H12A     1.4640   0.3396  -1.3360   H         1 1      0.0000
     4 C13      3.2852  -0.3110  -0.4481   C.2       1 1      0.0000
     5 C14      3.9971  -1.5132   0.0937   C.3       1 1      0.0000
     6 H14B     3.8107  -2.3691  -0.5667   H         1 1      0.0000
     7 H14A     3.5879  -1.7587   1.0815   H         1 1      0.0000
     8 N        3.9465   0.7839  -0.7647   N.pl3     1 1      0.0000
     9 HN       4.9558   0.7657  -0.6191   H         1 1      0.0000
    10 C        3.4037   1.9635  -1.4225   C.3       1 1      0.0000
    11 HC       4.1910   2.5188  -1.9280   H         1 1      0.0000
    12 HB       2.6574   1.6857  -2.1636   H         1 1      0.0000
    13 HA       2.9331   2.6261  -0.6992   H         1 1      0.0000
    14 H12B     1.5252  -1.3888  -0.9558   H         1 1      0.0000
    15 O1       1.5313   1.1009   1.2665   O.3       1 1      0.0000
    16 H11      1.2916  -0.9427   1.4296   H         1 1      0.0000
    17 OH1      1.2476   1.1732   2.2111   H         1 1      0.0000
    18 C10     -0.4366  -0.0854   0.5008   C.ar      1 1      0.0000
    19 C9      -1.2349   0.7826   1.2335   C.ar      1 1      0.0000
    20 C5      -1.0358  -0.9077  -0.4439   C.ar      1 1      0.0000
    21 C8      -2.6012   0.8304   1.0328   C.ar      1 1      0.0000
    22 H9      -0.7797   1.4321   1.9739   H         1 1      0.0000
    23 C6      -2.4010  -0.8694  -0.6541   C.ar      1 1      0.0000
    24 H5      -0.4238  -1.5896  -1.0249   H         1 1      0.0000
    25 C7      -3.1847   0.0019   0.0867   C.ar      1 1      0.0000
    26 H8      -3.2141   1.5127   1.6125   H         1 1      0.0000
    27 H6      -2.8571  -1.5177  -1.3949   H         1 1      0.0000
    28 NO      -4.5031   0.0432  -0.1114   N.pl3     1 1      0.0000
    29 ON2     -5.0815  -0.9383  -0.6424   O.2       1 1      0.0000
    30 ON1     -5.1507   1.0631   0.2356   O.2       1 1      0.0000
    31 C15      5.4974  -1.2931   0.2144   C.3       1 1      0.0000
    32 H15A     5.7128  -0.4618   0.8825   H         1 1      0.0000
    33 H15C     5.9870  -2.1809   0.6093   H         1 1      0.0000
    34 H15B     5.9338  -1.0692  -0.7568   H         1 1      0.0000
@<TRIPOS>BOND
     1     1     2    1
     2     1    15    1
     3     1    16    1
     4     1    18    1
     5     2     3    1
     6     2     4    1
     7     2    14    1
     8     4     5    1
     9     4     8    2
    10     5     6    1
    11     5     7    1
    12     5    31    1
    13     8     9    1
    14     8    10    1
    15    10    11    1
    16    10    12    1
    17    10    13    1
    18    15    17    1
    19    18    19   ar
    20    18    20   ar
    21    19    21   ar
    22    19    22    1
    23    20    23   ar
    24    20    24    1
    25    21    25   ar
    26    21    26    1
    27    23    25   ar
    28    23    27    1
    29    25    28   un
    30    28    29   un
    31    28    30   un
    32    31    32    1
    33    31    33    1
    34    31    34    1
@<TRIPOS>SUBSTRUCTURE
     1 1           1 GROUP             0 ****  ****    0  
@<TRIPOS>MOLECULE
Molecule Name_00001_00001_00062
    34    34     1     0     0
SMALL
NO_CHARGES
****
Generated from the CSD

@<TRIPOS>ATOM
     1 C11      1.0143  -0.3026  -0.6501   C.3       1 1      0.0000
     2 C12      1.8369   0.4086   0.4198   C.3       1 1      0.0000
     3 H12A     1.5368   0.0387   1.4078   H         1 1      0.0000
     4 C13      3.3126   0.2108   0.2479   C.2       1 1      0.0000
     5 C14      3.9225  -1.0193   0.8484   C.3       1 1      0.0000
     6 H14B     3.4629  -1.9063   0.3952   H         1 1      0.0000
     7 H14A     3.7028  -1.0419   1.9230   H         1 1      0.0000
     8 N        4.0547   1.0965  -0.3854   N.pl3     1 1      0.0000
     9 HN       5.0539   0.8993  -0.4398   H         1 1      0.0000
    10 C        3.5772   2.2546  -1.1268   C.3       1 1      0.0000
    11 HC       4.2612   2.5023  -1.9358   H         1 1      0.0000
    12 HB       2.5981   2.0614  -1.5598   H         1 1      0.0000
    13 HA       3.4949   3.1222  -0.4755   H         1 1      0.0000
    14 H12B     1.6152   1.4825   0.3855   H         1 1      0.0000
    15 O1       1.4098  -1.6713  -0.6878   O.3       1 1      0.0000
    16 H11      1.2264   0.1572  -1.6278   H         1 1      0.0000
    17 OH1      0.9958  -2.1116  -1.4706   H         1 1      0.0000
    18 C10     -0.4672  -0.1759  -0.3607   C.ar      1 1      0.0000
    19 C9      -1.3370  -1.2169  -0.6563   C.ar      1 1      0.0000
    20 C5      -0.9797   0.9813   0.2102   C.ar      1 1      0.0000
    21 C8      -2.6889  -1.1088  -0.3918   C.ar      1 1      0.0000
    22 H9      -0.9499  -2.1277  -1.1011   H         1 1      0.0000
    23 C6      -2.3296   1.1018   0.4796   C.ar      1 1      0.0000
    24 H5      -0.3112   1.8021   0.4479   H         1 1      0.0000
    25 C7      -3.1855   0.0538   0.1773   C.ar      1 1      0.0000
    26 H8      -3.3582  -1.9293  -0.6282   H         1 1      0.0000
    27 H6      -2.7177   2.0117   0.9253   H         1 1      0.0000
    28 NO      -4.4896   0.1643   0.4347   N.pl3     1 1      0.0000
    29 ON2     -5.0020   1.3049   0.5622   O.2       1 1      0.0000
    30 ON1     -5.1897  -0.8736   0.5464   O.2       1 1      0.0000
    31 C15      5.4289  -1.0782   0.6446   C.3       1 1      0.0000
    32 H15A     5.9141  -0.2196   1.1042   H         1 1      0.0000
    33 H15C     5.8433  -1.9802   1.0899   H         1 1      0.0000
    34 H15B     5.6749  -1.0794  -0.4152   H         1 1      0.0000
@<TRIPOS>BOND
     1     1     2    1
     2     1    15    1
     3     1    16    1
     4     1    18    1
     5     2     3    1
     6     2     4    1
     7     2    14    1
     8     4     5    1
     9     4     8    2
    10     5     6    1
    11     5     7    1
    12     5    31    1
    13     8     9    1
    14     8    10    1
    15    10    11    1
    16    10    12    1
    17    10    13    1
    18    15    17    1
    19    18    19   ar
    20    18    20   ar
    21    19    21   ar
    22    19    22    1
    23    20    23   ar
    24    20    24    1
    25    21    25   ar
    26    21    26    1
    27    23    25   ar
    28    23    27    1
    29    25    28   un
    30    28    29   un
    31    28    30   un
    32    31    32    1
    33    31    33    1
    34    31    34    1
@<TRIPOS>SUBSTRUCTURE
     1 1           1 GROUP             0 ****  ****    0  
@<TRIPOS>MOLECULE
Molecule Name_00001_00001_00063
    34    34     1     0     0
SMALL
NO_CHARGES
****
Generated from the CSD

@<TRIPOS>ATOM
     1 C11      1.0606  -0.1275   0.7203   C.3       1 1      0.0000
     2 C12      1.7964  -0.3882  -0.5904   C.3       1 1      0.0000
     3 H12A     1.4678   0.3441  -1.3379   H         1 1      0.0000
     4 C13      3.2863  -0.3109  -0.4478   C.2       1 1      0.0000
     5 C14      3.9952  -1.5150   0.0937   C.3       1 1      0.0000
     6 H14B     3.8084  -2.3698  -0.5681   H         1 1      0.0000
     7 H14A     3.5839  -1.7611   1.0804   H         1 1      0.0000
     8 N        3.9501   0.7833  -0.7618   N.pl3     1 1      0.0000
     9 HN       4.9591   0.7631  -0.6145   H         1 1      0.0000
    10 C        3.4104   1.9647  -1.4190   C.3       1 1      0.0000
    11 HC       4.1996   2.5192  -1.9224   H         1 1      0.0000
    12 HB       2.6649   1.6891  -2.1617   H         1 1      0.0000
    13 HA       2.9398   2.6272  -0.6956   H         1 1      0.0000
    14 H12B     1.5253  -1.3850  -0.9598   H         1 1      0.0000
    15 O1       1.5318   1.1021   1.2655   O.3       1 1      0.0000
    16 H11      1.2887  -0.9414   1.4258   H         1 1      0.0000
    17 OH1      1.2494   1.1721   2.2107   H         1 1      0.0000
    18 C10     -0.4367  -0.0803   0.4952   C.ar      1 1      0.0000
    19 C9      -1.0363  -0.9042  -0.4478   C.ar      1 1      0.0000
    20 C5      -1.2356   0.7837   1.2319   C.ar      1 1      0.0000
    21 C8      -2.4018  -0.8683  -0.6556   C.ar      1 1      0.0000
    22 H9      -0.4242  -1.5856  -1.0294   H         1 1      0.0000
    23 C6      -2.6023   0.8292   1.0336   C.ar      1 1      0.0000
    24 H5      -0.7806   1.4320   1.9734   H         1 1      0.0000
    25 C7      -3.1859   0.0010   0.0872   C.ar      1 1      0.0000
    26 H8      -2.8581  -1.5169  -1.3961   H         1 1      0.0000
    27 H6      -3.2155   1.5094   1.6154   H         1 1      0.0000
    28 NO      -4.5046   0.0406  -0.1092   N.pl3     1 1      0.0000
    29 ON2     -5.1533   1.0591   0.2398   O.2       1 1      0.0000
    30 ON1     -5.0822  -0.9412  -0.6407   O.2       1 1      0.0000
    31 C15      5.4957  -1.2977   0.2172   C.3       1 1      0.0000
    32 H15A     5.7114  -0.4677   0.8868   H         1 1      0.0000
    33 H15C     5.9830  -2.1869   0.6118   H         1 1      0.0000
    34 H15B     5.9341  -1.0733  -0.7530   H         1 1      0.0000
@<TRIPOS>BOND
     1     1     2    1
     2     1    15    1
     3     1    16    1
     4     1    18    1
     5     2     3    1
     6     2     4    1
     7     2    14    1
     8     4     5    1
     9     4     8    2
    10     5     6    1
    11     5     7    1
    12     5    31    1
    13     8     9    1
    14     8    10    1
    15    10    11    1
    16    10    12    1
    17    10    13    1
    18    15    17    1
    19    18    19   ar
    20    18    20   ar
    21    19    21   ar
    22    19    22    1
    23    20    23   ar
    24    20    24    1
    25    21    25   ar
    26    21    26    1
    27    23    25   ar
    28    23    27    1
    29    25    28   un
    30    28    29   un
    31    28    30   un
    32    31    32    1
    33    31    33    1
    34    31    34    1
@<TRIPOS>SUBSTRUCTURE
     1 1           1 GROUP             0 ****  ****    0  
@<TRIPOS>MOLECULE
Molecule Name_00001_00001_00064
    34    34     1     0     0
SMALL
NO_CHARGES
****
Generated from the CSD

@<TRIPOS>ATOM
     1 C11      1.0142  -0.3057  -0.6455   C.3       1 1      0.0000
     2 C12      1.8385   0.4081   0.4215   C.3       1 1      0.0000
     3 H12A     1.5410   0.0394   1.4107   H         1 1      0.0000
     4 C13      3.3139   0.2115   0.2465   C.2       1 1      0.0000
     5 C14      3.9265  -1.0171   0.8476   C.3       1 1      0.0000
     6 H14B     3.4667  -1.9052   0.3968   H         1 1      0.0000
     7 H14A     3.7092  -1.0382   1.9226   H         1 1      0.0000
     8 N        4.0538   1.0969  -0.3899   N.pl3     1 1      0.0000
     9 HN       5.0530   0.9007  -0.4462   H         1 1      0.0000
    10 C        3.5734   2.2533  -1.1320   C.3       1 1      0.0000
    11 HC       4.2553   2.5006  -1.9429   H         1 1      0.0000
    12 HB       2.5935   2.0585  -1.5625   H         1 1      0.0000
    13 HA       3.4917   3.1219  -0.4818   H         1 1      0.0000
    14 H12B     1.6156   1.4816   0.3859   H         1 1      0.0000
    15 O1       1.4107  -1.6741  -0.6816   O.3       1 1      0.0000
    16 H11      1.2238   0.1525  -1.6244   H         1 1      0.0000
    17 OH1      0.9955  -2.1161  -1.4628   H         1 1      0.0000
    18 C10     -0.4668  -0.1797  -0.3532   C.ar      1 1      0.0000
    19 C9      -0.9798   0.9800   0.2120   C.ar      1 1      0.0000
    20 C5      -1.3373  -1.2196  -0.6506   C.ar      1 1      0.0000
    21 C8      -2.3302   1.1025   0.4782   C.ar      1 1      0.0000
    22 H9      -0.3113   1.8014   0.4480   H         1 1      0.0000
    23 C6      -2.6897  -1.1096  -0.3893   C.ar      1 1      0.0000
    24 H5      -0.9503  -2.1310  -1.0941   H         1 1      0.0000
    25 C7      -3.1863   0.0545   0.1766   C.ar      1 1      0.0000
    26 H8      -2.7184   2.0138   0.9207   H         1 1      0.0000
    27 H6      -3.3593  -1.9299  -0.6259   H         1 1      0.0000
    28 NO      -4.4908   0.1666   0.4315   N.pl3     1 1      0.0000
    29 ON2     -5.1920  -0.8705   0.5441   O.2       1 1      0.0000
    30 ON1     -5.0026   1.3079   0.5558   O.2       1 1      0.0000
    31 C15      5.4324  -1.0748   0.6405   C.3       1 1      0.0000
    32 H15A     5.9178  -0.2150   1.0976   H         1 1      0.0000
    33 H15C     5.8488  -1.9757   1.0862   H         1 1      0.0000
    34 H15B     5.6761  -1.0774  -0.4199   H         1 1      0.0000
@<TRIPOS>BOND
     1     1     2    1
     2     1    15    1
     3     1    16    1
     4     1    18    1
     5     2     3    1
     6     2     4    1
     7     2    14    1
     8     4     5    1
     9     4     8    2
    10     5     6    1
    11     5     7    1
    12     5    31    1
    13     8     9    1
    14     8    10    1
    15    10    11    1
    16    10    12    1
    17    10    13    1
    18    15    17    1
    19    18    19   ar
    20    18    20   ar
    21    19    21   ar
    22    19    22    1
    23    20    23   ar
    24    20    24    1
    25    21    25   ar
    26    21    26    1
    27    23    25   ar
    28    23    27    1
    29    25    28   un
    30    28    29   un
    31    28    30   un
    32    31    32    1
    33    31    33    1
    34    31    34    1
@<TRIPOS>SUBSTRUCTURE
     1 1           1 GROUP             0 ****  ****    0  
@<TRIPOS>MOLECULE
Molecule Name_00001_00001_00065
    34    34     1     0     0
SMALL
NO_CHARGES
****
Generated from the CSD

@<TRIPOS>ATOM
     1 C11      1.1099  -0.1125  -0.5822   C.3       1 1      0.0000
     2 C12      1.8772   0.3809   0.6405   C.3       1 1      0.0000
     3 H12A     1.5660  -0.1996   1.5175   H         1 1      0.0000
     4 C13      3.3633   0.2705   0.4797   C.2       1 1      0.0000
     5 C14      3.9997  -1.0484   0.7977   C.3       1 1      0.0000
     6 H14B     3.2906  -1.6616   1.3673   H         1 1      0.0000
     7 H14A     4.8791  -0.8799   1.4316   H         1 1      0.0000
     8 N        4.0908   1.3006   0.0974   N.pl3     1 1      0.0000
     9 HN       5.0974   1.1499   0.0341   H         1 1      0.0000
    10 C        3.5931   2.5863  -0.3695   C.3       1 1      0.0000
    11 HC       4.2902   3.0361  -1.0735   H         1 1      0.0000
    12 HB       2.6340   2.4726  -0.8702   H         1 1      0.0000
    13 HA       3.4616   3.2743   0.4630   H         1 1      0.0000
    14 H12B     1.6161   1.4300   0.8264   H         1 1      0.0000
    15 O1       1.5381  -1.4392  -0.8786   O.3       1 1      0.0000
    16 H11      1.3460   0.5382  -1.4384   H         1 1      0.0000
    17 OH1      1.0621  -1.7666  -1.6813   H         1 1      0.0000
    18 C10     -0.3835  -0.0698  -0.3321   C.ar      1 1      0.0000
    19 C9      -1.0323   1.1410  -0.1308   C.ar      1 1      0.0000
    20 C5      -1.1298  -1.2402  -0.3053   C.ar      1 1      0.0000
    21 C8      -2.3948   1.1870   0.0947   C.ar      1 1      0.0000
    22 H9      -0.4618   2.0637  -0.1508   H         1 1      0.0000
    23 C6      -2.4928  -1.2076  -0.0808   C.ar      1 1      0.0000
    24 H5      -0.6360  -2.1934  -0.4628   H         1 1      0.0000
    25 C7      -3.1259   0.0094   0.1198   C.ar      1 1      0.0000
    26 H8      -2.8898   2.1398   0.2513   H         1 1      0.0000
    27 H6      -3.0646  -2.1296  -0.0617   H         1 1      0.0000
    28 NO      -4.4413   0.0473   0.3373   N.pl3     1 1      0.0000
    29 ON2     -5.0309  -0.9816   0.7542   O.2       1 1      0.0000
    30 ON1     -5.0749   1.1114   0.1227   O.2       1 1      0.0000
    31 C15      4.4220  -1.8049  -0.4527   C.3       1 1      0.0000
    32 H15A     5.5008  -1.7580  -0.5860   H         1 1      0.0000
    33 H15C     4.1340  -2.8519  -0.3857   H         1 1      0.0000
    34 H15B     3.9523  -1.3802  -1.3374   H         1 1      0.0000
@<TRIPOS>BOND
     1     1     2    1
     2     1    15    1
     3     1    16    1
     4     1    18    1
     5     2     3    1
     6     2     4    1
     7     2    14    1
     8     4     5    1
     9     4     8    2
    10     5     6    1
    11     5     7    1
    12     5    31    1
    13     8     9    1
    14     8    10    1
    15    10    11    1
    16    10    12    1
    17    10    13    1
    18    15    17    1
    19    18    19   ar
    20    18    20   ar
    21    19    21   ar
    22    19    22    1
    23    20    23   ar
    24    20    24    1
    25    21    25   ar
    26    21    26    1
    27    23    25   ar
    28    23    27    1
    29    25    28   un
    30    28    29   un
    31    28    30   un
    32    31    32    1
    33    31    33    1
    34    31    34    1
@<TRIPOS>SUBSTRUCTURE
     1 1           1 GROUP             0 ****  ****    0  
@<TRIPOS>MOLECULE
Molecule Name_00001_00001_00066
    34    34     1     0     0
SMALL
NO_CHARGES
****
Generated from the CSD

@<TRIPOS>ATOM
     1 C11      1.1103  -0.1120  -0.5863   C.3       1 1      0.0000
     2 C12      1.8747   0.3808   0.6385   C.3       1 1      0.0000
     3 H12A     1.5612  -0.2000   1.5145   H         1 1      0.0000
     4 C13      3.3611   0.2703   0.4813   C.2       1 1      0.0000
     5 C14      3.9966  -1.0489   0.8003   C.3       1 1      0.0000
     6 H14B     3.2859  -1.6622   1.3679   H         1 1      0.0000
     7 H14A     4.8744  -0.8808   1.4363   H         1 1      0.0000
     8 N        4.0897   1.3004   0.1012   N.pl3     1 1      0.0000
     9 HN       5.0965   1.1495   0.0403   H         1 1      0.0000
    10 C        3.5933   2.5864  -0.3664   C.3       1 1      0.0000
    11 HC       4.2922   3.0363  -1.0685   H         1 1      0.0000
    12 HB       2.6354   2.4730  -0.8694   H         1 1      0.0000
    13 HA       3.4600   3.2741   0.4661   H         1 1      0.0000
    14 H12B     1.6133   1.4299   0.8243   H         1 1      0.0000
    15 O1       1.5388  -1.4386  -0.8821   O.3       1 1      0.0000
    16 H11      1.3485   0.5391  -1.4416   H         1 1      0.0000
    17 OH1      1.0647  -1.7656  -1.6861   H         1 1      0.0000
    18 C10     -0.3838  -0.0690  -0.3397   C.ar      1 1      0.0000
    19 C9      -1.1294  -1.2397  -0.3096   C.ar      1 1      0.0000
    20 C5      -1.0320   1.1414  -0.1340   C.ar      1 1      0.0000
    21 C8      -2.4919  -1.2076  -0.0819   C.ar      1 1      0.0000
    22 H9      -0.6355  -2.1929  -0.4670   H         1 1      0.0000
    23 C6      -2.3939   1.1871   0.0947   C.ar      1 1      0.0000
    24 H5      -0.4613   2.0640  -0.1531   H         1 1      0.0000
    25 C7      -3.1248   0.0093   0.1204   C.ar      1 1      0.0000
    26 H8      -3.0634  -2.1296  -0.0615   H         1 1      0.0000
    27 H6      -2.8887   2.1396   0.2533   H         1 1      0.0000
    28 NO      -4.4399   0.0468   0.3402   N.pl3     1 1      0.0000
    29 ON2     -5.0741   1.1110   0.1273   O.2       1 1      0.0000
    30 ON1     -5.0285  -0.9824   0.7576   O.2       1 1      0.0000
    31 C15      4.4217  -1.8049  -0.4494   C.3       1 1      0.0000
    32 H15A     5.5012  -1.7616  -0.5778   H         1 1      0.0000
    33 H15C     4.1297  -2.8510  -0.3853   H         1 1      0.0000
    34 H15B     3.9575  -1.3771  -1.3356   H         1 1      0.0000
@<TRIPOS>BOND
     1     1     2    1
     2     1    15    1
     3     1    16    1
     4     1    18    1
     5     2     3    1
     6     2     4    1
     7     2    14    1
     8     4     5    1
     9     4     8    2
    10     5     6    1
    11     5     7    1
    12     5    31    1
    13     8     9    1
    14     8    10    1
    15    10    11    1
    16    10    12    1
    17    10    13    1
    18    15    17    1
    19    18    19   ar
    20    18    20   ar
    21    19    21   ar
    22    19    22    1
    23    20    23   ar
    24    20    24    1
    25    21    25   ar
    26    21    26    1
    27    23    25   ar
    28    23    27    1
    29    25    28   un
    30    28    29   un
    31    28    30   un
    32    31    32    1
    33    31    33    1
    34    31    34    1
@<TRIPOS>SUBSTRUCTURE
     1 1           1 GROUP             0 ****  ****    0  
@<TRIPOS>MOLECULE
Molecule Name_00001_00001_00067
    34    34     1     0     0
SMALL
NO_CHARGES
****
Generated from the CSD

@<TRIPOS>ATOM
     1 C11      1.1225  -0.4390   0.6593   C.3       1 1      0.0000
     2 C12      1.9068   0.2094  -0.4772   C.3       1 1      0.0000
     3 H12A     1.5608   1.2420  -0.6082   H         1 1      0.0000
     4 C13      3.3861   0.2132  -0.2366   C.2       1 1      0.0000
     5 C14      4.0293  -1.0831   0.1527   C.3       1 1      0.0000
     6 H14B     3.4358  -1.5549   0.9456   H         1 1      0.0000
     7 H14A     5.0282  -0.8814   0.5590   H         1 1      0.0000
     8 N        4.0953   1.3193  -0.3376   N.pl3     1 1      0.0000
     9 HN       5.0920   1.2424  -0.1359   H         1 1      0.0000
    10 C        3.6277   2.6050  -0.8347   C.3       1 1      0.0000
    11 HC       4.4439   3.1607  -1.2917   H         1 1      0.0000
    12 HB       2.8492   2.4721  -1.5828   H         1 1      0.0000
    13 HA       3.2206   3.2066  -0.0247   H         1 1      0.0000
    14 H12B     1.6989  -0.3316  -1.4086   H         1 1      0.0000
    15 O1       1.5034   0.1838   1.8832   O.3       1 1      0.0000
    16 H11      1.3814  -1.5081   0.7072   H         1 1      0.0000
    17 OH1      1.0161  -0.2391   2.6328   H         1 1      0.0000
    18 C10     -0.3684  -0.3065   0.4265   C.ar      1 1      0.0000
    19 C9      -1.1840  -1.4300   0.4090   C.ar      1 1      0.0000
    20 C5      -0.9456   0.9411   0.2323   C.ar      1 1      0.0000
    21 C8      -2.5451  -1.3155   0.2004   C.ar      1 1      0.0000
    22 H9      -0.7465  -2.4112   0.5611   H         1 1      0.0000
    23 C6      -2.3054   1.0690   0.0227   C.ar      1 1      0.0000
    24 H5      -0.3205   1.8278   0.2452   H         1 1      0.0000
    25 C7      -3.1062  -0.0627   0.0066   C.ar      1 1      0.0000
    26 H8      -3.1714  -2.2014   0.1883   H         1 1      0.0000
    27 H6      -2.7441   2.0497  -0.1285   H         1 1      0.0000
    28 NO      -4.4195   0.0542  -0.1956   N.pl3     1 1      0.0000
    29 ON2     -4.8713   1.0847  -0.7558   O.2       1 1      0.0000
    30 ON1     -5.1887  -0.8676   0.1766   O.2       1 1      0.0000
    31 C15      4.1510  -2.0450  -1.0194   C.3       1 1      0.0000
    32 H15A     4.7545  -1.6107  -1.8137   H         1 1      0.0000
    33 H15C     4.6203  -2.9757  -0.7075   H         1 1      0.0000
    34 H15B     3.1707  -2.2803  -1.4286   H         1 1      0.0000
@<TRIPOS>BOND
     1     1     2    1
     2     1    15    1
     3     1    16    1
     4     1    18    1
     5     2     3    1
     6     2     4    1
     7     2    14    1
     8     4     5    1
     9     4     8    2
    10     5     6    1
    11     5     7    1
    12     5    31    1
    13     8     9    1
    14     8    10    1
    15    10    11    1
    16    10    12    1
    17    10    13    1
    18    15    17    1
    19    18    19   ar
    20    18    20   ar
    21    19    21   ar
    22    19    22    1
    23    20    23   ar
    24    20    24    1
    25    21    25   ar
    26    21    26    1
    27    23    25   ar
    28    23    27    1
    29    25    28   un
    30    28    29   un
    31    28    30   un
    32    31    32    1
    33    31    33    1
    34    31    34    1
@<TRIPOS>SUBSTRUCTURE
     1 1           1 GROUP             0 ****  ****    0  
@<TRIPOS>MOLECULE
Molecule Name_00001_00001_00068
    34    34     1     0     0
SMALL
NO_CHARGES
****
Generated from the CSD

@<TRIPOS>ATOM
     1 C11      1.1230  -0.4386   0.6633   C.3       1 1      0.0000
     2 C12      1.9047   0.2097  -0.4750   C.3       1 1      0.0000
     3 H12A     1.5586   1.2423  -0.6052   H         1 1      0.0000
     4 C13      3.3846   0.2132  -0.2379   C.2       1 1      0.0000
     5 C14      4.0284  -1.0832   0.1500   C.3       1 1      0.0000
     6 H14B     3.4367  -1.5549   0.9442   H         1 1      0.0000
     7 H14A     5.0283  -0.8817   0.5538   H         1 1      0.0000
     8 N        4.0936   1.3191  -0.3406   N.pl3     1 1      0.0000
     9 HN       5.0909   1.2420  -0.1412   H         1 1      0.0000
    10 C        3.6252   2.6050  -0.8366   C.3       1 1      0.0000
    11 HC       4.4403   3.1605  -1.2956   H         1 1      0.0000
    12 HB       2.8449   2.4722  -1.5829   H         1 1      0.0000
    13 HA       3.2200   3.2066  -0.0256   H         1 1      0.0000
    14 H12B     1.6945  -0.3313  -1.4059   H         1 1      0.0000
    15 O1       1.5068   0.1842   1.8864   O.3       1 1      0.0000
    16 H11      1.3818  -1.5077   0.7106   H         1 1      0.0000
    17 OH1      1.0212  -0.2386   2.6371   H         1 1      0.0000
    18 C10     -0.3685  -0.3059   0.4340   C.ar      1 1      0.0000
    19 C9      -0.9452   0.9414   0.2356   C.ar      1 1      0.0000
    20 C5      -1.1835  -1.4297   0.4129   C.ar      1 1      0.0000
    21 C8      -2.3045   1.0689   0.0227   C.ar      1 1      0.0000
    22 H9      -0.3199   1.8280   0.2478   H         1 1      0.0000
    23 C6      -2.5442  -1.3156   0.2010   C.ar      1 1      0.0000
    24 H5      -0.7460  -2.4109   0.5648   H         1 1      0.0000
    25 C7      -3.1051  -0.0629   0.0058   C.ar      1 1      0.0000
    26 H8      -2.7429   2.0495  -0.1304   H         1 1      0.0000
    27 H6      -3.1702  -2.2016   0.1875   H         1 1      0.0000
    28 NO      -4.4180   0.0538  -0.1989   N.pl3     1 1      0.0000
    29 ON2     -5.1878  -0.8679   0.1723   O.2       1 1      0.0000
    30 ON1     -4.8689   1.0840  -0.7604   O.2       1 1      0.0000
    31 C15      4.1472  -2.0452  -1.0225   C.3       1 1      0.0000
    32 H15A     4.7489  -1.6110  -1.8182   H         1 1      0.0000
    33 H15C     4.6171  -2.9760  -0.7116   H         1 1      0.0000
    34 H15B     3.1659  -2.2803  -1.4294   H         1 1      0.0000
@<TRIPOS>BOND
     1     1     2    1
     2     1    15    1
     3     1    16    1
     4     1    18    1
     5     2     3    1
     6     2     4    1
     7     2    14    1
     8     4     5    1
     9     4     8    2
    10     5     6    1
    11     5     7    1
    12     5    31    1
    13     8     9    1
    14     8    10    1
    15    10    11    1
    16    10    12    1
    17    10    13    1
    18    15    17    1
    19    18    19   ar
    20    18    20   ar
    21    19    21   ar
    22    19    22    1
    23    20    23   ar
    24    20    24    1
    25    21    25   ar
    26    21    26    1
    27    23    25   ar
    28    23    27    1
    29    25    28   un
    30    28    29   un
    31    28    30   un
    32    31    32    1
    33    31    33    1
    34    31    34    1
@<TRIPOS>SUBSTRUCTURE
     1 1           1 GROUP             0 ****  ****    0  
@<TRIPOS>MOLECULE
Molecule Name_00001_00001_00069
    34    34     1     0     0
SMALL
NO_CHARGES
****
Generated from the CSD

@<TRIPOS>ATOM
     1 C11      1.1671  -0.5238   0.3493   C.3       1 1      0.0000
     2 C12      1.8735   0.2703  -0.7451   C.3       1 1      0.0000
     3 H12A     1.5497   1.3169  -0.6946   H         1 1      0.0000
     4 C13      3.3672   0.2117  -0.6360   C.2       1 1      0.0000
     5 C14      4.0060  -1.1425  -0.5742   C.3       1 1      0.0000
     6 H14B     5.0621  -1.0549  -0.8577   H         1 1      0.0000
     7 H14A     3.5191  -1.8034  -1.3019   H         1 1      0.0000
     8 N        4.0942   1.3087  -0.5707   N.pl3     1 1      0.0000
     9 HN       5.1018   1.1834  -0.4747   H         1 1      0.0000
    10 C        3.6213   2.6730  -0.7546   C.3       1 1      0.0000
    11 HC       4.4115   3.3032  -1.1574   H         1 1      0.0000
    12 HB       2.7810   2.7027  -1.4449   H         1 1      0.0000
    13 HA       3.2976   3.0999   0.1923   H         1 1      0.0000
    14 H12B     1.5722  -0.1242  -1.7234   H         1 1      0.0000
    15 O1       1.6442  -0.0720   1.6140   O.3       1 1      0.0000
    16 H11      1.4161  -1.5900   0.2341   H         1 1      0.0000
    17 OH1      1.2082  -0.5910   2.3342   H         1 1      0.0000
    18 C10     -0.3352  -0.3583   0.2479   C.ar      1 1      0.0000
    19 C9      -1.1632  -1.4676   0.1406   C.ar      1 1      0.0000
    20 C5      -0.9103   0.9052   0.2661   C.ar      1 1      0.0000
    21 C8      -2.5345  -1.3235   0.0510   C.ar      1 1      0.0000
    22 H9      -0.7274  -2.4612   0.1269   H         1 1      0.0000
    23 C6      -2.2802   1.0627   0.1772   C.ar      1 1      0.0000
    24 H5      -0.2753   1.7809   0.3513   H         1 1      0.0000
    25 C7      -3.0934  -0.0549   0.0692   C.ar      1 1      0.0000
    26 H8      -3.1705  -2.1985  -0.0332   H         1 1      0.0000
    27 H6      -2.7171   2.0558   0.1919   H         1 1      0.0000
    28 NO      -4.4164   0.0906  -0.0173   N.pl3     1 1      0.0000
    29 ON2     -4.8959   1.1880  -0.3992   O.2       1 1      0.0000
    30 ON1     -5.1671  -0.8714   0.2841   O.2       1 1      0.0000
    31 C15      3.9105  -1.7660   0.8100   C.3       1 1      0.0000
    32 H15A     3.0438  -2.4200   0.8795   H         1 1      0.0000
    33 H15C     4.7983  -2.3554   1.0296   H         1 1      0.0000
    34 H15B     3.8169  -0.9969   1.5739   H         1 1      0.0000
@<TRIPOS>BOND
     1     1     2    1
     2     1    15    1
     3     1    16    1
     4     1    18    1
     5     2     3    1
     6     2     4    1
     7     2    14    1
     8     4     5    1
     9     4     8    2
    10     5     6    1
    11     5     7    1
    12     5    31    1
    13     8     9    1
    14     8    10    1
    15    10    11    1
    16    10    12    1
    17    10    13    1
    18    15    17    1
    19    18    19   ar
    20    18    20   ar
    21    19    21   ar
    22    19    22    1
    23    20    23   ar
    24    20    24    1
    25    21    25   ar
    26    21    26    1
    27    23    25   ar
    28    23    27    1
    29    25    28   un
    30    28    29   un
    31    28    30   un
    32    31    32    1
    33    31    33    1
    34    31    34    1
@<TRIPOS>SUBSTRUCTURE
     1 1           1 GROUP             0 ****  ****    0  
@<TRIPOS>MOLECULE
Molecule Name_00001_00001_00070
    34    34     1     0     0
SMALL
NO_CHARGES
****
Generated from the CSD

@<TRIPOS>ATOM
     1 C11      1.1675  -0.5239   0.3533   C.3       1 1      0.0000
     2 C12      1.8712   0.2701  -0.7429   C.3       1 1      0.0000
     3 H12A     1.5473   1.3167  -0.6917   H         1 1      0.0000
     4 C13      3.3651   0.2117  -0.6374   C.2       1 1      0.0000
     5 C14      4.0042  -1.1424  -0.5771   C.3       1 1      0.0000
     6 H14B     5.0596  -1.0547  -0.8631   H         1 1      0.0000
     7 H14A     3.5156  -1.8035  -1.3035   H         1 1      0.0000
     8 N        4.0922   1.3088  -0.5740   N.pl3     1 1      0.0000
     9 HN       5.1000   1.1836  -0.4804   H         1 1      0.0000
    10 C        3.6186   2.6730  -0.7569   C.3       1 1      0.0000
    11 HC       4.4078   3.3032  -1.1616   H         1 1      0.0000
    12 HB       2.7767   2.7026  -1.4451   H         1 1      0.0000
    13 HA       3.2972   3.1000   0.1909   H         1 1      0.0000
    14 H12B     1.5675  -0.1245  -1.7205   H         1 1      0.0000
    15 O1       1.6476  -0.0720   1.6168   O.3       1 1      0.0000
    16 H11      1.4163  -1.5902   0.2375   H         1 1      0.0000
    17 OH1      1.2134  -0.5910   2.3381   H         1 1      0.0000
    18 C10     -0.3351  -0.3586   0.2555   C.ar      1 1      0.0000
    19 C9      -0.9099   0.9051   0.2694   C.ar      1 1      0.0000
    20 C5      -1.1628  -1.4678   0.1447   C.ar      1 1      0.0000
    21 C8      -2.2795   1.0627   0.1772   C.ar      1 1      0.0000
    22 H9      -0.2749   1.7808   0.3538   H         1 1      0.0000
    23 C6      -2.5339  -1.3236   0.0518   C.ar      1 1      0.0000
    24 H5      -0.7271  -2.4614   0.1308   H         1 1      0.0000
    25 C7      -3.0927  -0.0549   0.0685   C.ar      1 1      0.0000
    26 H8      -2.7163   2.0558   0.1899   H         1 1      0.0000
    27 H6      -3.1698  -2.1985  -0.0337   H         1 1      0.0000
    28 NO      -4.4155   0.0908  -0.0205   N.pl3     1 1      0.0000
    29 ON2     -5.1670  -0.8709   0.2802   O.2       1 1      0.0000
    30 ON1     -4.8942   1.1881  -0.4037   O.2       1 1      0.0000
    31 C15      3.9122  -1.7658   0.8074   C.3       1 1      0.0000
    32 H15A     3.0457  -2.4199   0.8791   H         1 1      0.0000
    33 H15C     4.8005  -2.3551   1.0249   H         1 1      0.0000
    34 H15B     3.8203  -0.9967   1.5714   H         1 1      0.0000
@<TRIPOS>BOND
     1     1     2    1
     2     1    15    1
     3     1    16    1
     4     1    18    1
     5     2     3    1
     6     2     4    1
     7     2    14    1
     8     4     5    1
     9     4     8    2
    10     5     6    1
    11     5     7    1
    12     5    31    1
    13     8     9    1
    14     8    10    1
    15    10    11    1
    16    10    12    1
    17    10    13    1
    18    15    17    1
    19    18    19   ar
    20    18    20   ar
    21    19    21   ar
    22    19    22    1
    23    20    23   ar
    24    20    24    1
    25    21    25   ar
    26    21    26    1
    27    23    25   ar
    28    23    27    1
    29    25    28   un
    30    28    29   un
    31    28    30   un
    32    31    32    1
    33    31    33    1
    34    31    34    1
@<TRIPOS>SUBSTRUCTURE
     1 1           1 GROUP             0 ****  ****    0  
@<TRIPOS>MOLECULE
Molecule Name_00001_00001_00071
    34    34     1     0     0
SMALL
NO_CHARGES
****
Generated from the CSD

@<TRIPOS>ATOM
     1 C11      1.0853   0.7128  -0.4257   C.3       1 1      0.0000
     2 C12      1.9375  -0.2931   0.3418   C.3       1 1      0.0000
     3 H12A     1.6189  -1.3088   0.0774   H         1 1      0.0000
     4 C13      3.4029  -0.1489   0.0622   C.2       1 1      0.0000
     5 C14      4.0766  -1.2520  -0.6961   C.3       1 1      0.0000
     6 H14B     5.0662  -0.9105  -1.0240   H         1 1      0.0000
     7 H14A     3.4891  -1.4827  -1.5934   H         1 1      0.0000
     8 N        4.0835   0.8961   0.4879   N.pl3     1 1      0.0000
     9 HN       5.0810   0.9082   0.2760   H         1 1      0.0000
    10 C        3.5343   2.0918   1.1103   C.3       1 1      0.0000
    11 HC       4.3163   2.6586   1.6113   H         1 1      0.0000
    12 HB       3.0718   2.7383   0.3677   H         1 1      0.0000
    13 HA       2.7798   1.8300   1.8493   H         1 1      0.0000
    14 H12B     1.7654  -0.1599   1.4170   H         1 1      0.0000
    15 O1       1.4240   0.6297  -1.8076   O.3       1 1      0.0000
    16 H11      1.3151   1.7263  -0.0623   H         1 1      0.0000
    17 OH1      0.8919   1.2899  -2.3167   H         1 1      0.0000
    18 C10     -0.3895   0.4394  -0.2134   C.ar      1 1      0.0000
    19 C9      -1.2309   1.4336   0.2673   C.ar      1 1      0.0000
    20 C5      -0.9259  -0.8084  -0.5010   C.ar      1 1      0.0000
    21 C8      -2.5776   1.1915   0.4601   C.ar      1 1      0.0000
    22 H9      -0.8255   2.4140   0.4947   H         1 1      0.0000
    23 C6      -2.2709  -1.0632  -0.3125   C.ar      1 1      0.0000
    24 H5      -0.2802  -1.5943  -0.8790   H         1 1      0.0000
    25 C7      -3.0978  -0.0602   0.1694   C.ar      1 1      0.0000
    26 H8      -3.2244   1.9769   0.8370   H         1 1      0.0000
    27 H6      -2.6776  -2.0429  -0.5406   H         1 1      0.0000
    28 NO      -4.3969  -0.3001   0.3538   N.pl3     1 1      0.0000
    29 ON2     -4.7965  -1.4848   0.4834   O.2       1 1      0.0000
    30 ON1     -5.2052   0.6616   0.3957   O.2       1 1      0.0000
    31 C15      4.2349  -2.5153   0.1364   C.3       1 1      0.0000
    32 H15A     3.2652  -2.8896   0.4577   H         1 1      0.0000
    33 H15C     4.7264  -3.2972  -0.4388   H         1 1      0.0000
    34 H15B     4.8337  -2.3200   1.0236   H         1 1      0.0000
@<TRIPOS>BOND
     1     1     2    1
     2     1    15    1
     3     1    16    1
     4     1    18    1
     5     2     3    1
     6     2     4    1
     7     2    14    1
     8     4     5    1
     9     4     8    2
    10     5     6    1
    11     5     7    1
    12     5    31    1
    13     8     9    1
    14     8    10    1
    15    10    11    1
    16    10    12    1
    17    10    13    1
    18    15    17    1
    19    18    19   ar
    20    18    20   ar
    21    19    21   ar
    22    19    22    1
    23    20    23   ar
    24    20    24    1
    25    21    25   ar
    26    21    26    1
    27    23    25   ar
    28    23    27    1
    29    25    28   un
    30    28    29   un
    31    28    30   un
    32    31    32    1
    33    31    33    1
    34    31    34    1
@<TRIPOS>SUBSTRUCTURE
     1 1           1 GROUP             0 ****  ****    0  
@<TRIPOS>MOLECULE
Molecule Name_00001_00001_00072
    34    34     1     0     0
SMALL
NO_CHARGES
****
Generated from the CSD

@<TRIPOS>ATOM
     1 C11      1.0855   0.7144  -0.4288   C.3       1 1      0.0000
     2 C12      1.9353  -0.2929   0.3398   C.3       1 1      0.0000
     3 H12A     1.6164  -1.3080   0.0737   H         1 1      0.0000
     4 C13      3.4014  -0.1495   0.0638   C.2       1 1      0.0000
     5 C14      4.0760  -1.2524  -0.6940   C.3       1 1      0.0000
     6 H14B     5.0666  -0.9113  -1.0192   H         1 1      0.0000
     7 H14A     3.4905  -1.4817  -1.5929   H         1 1      0.0000
     8 N        4.0817   0.8946   0.4921   N.pl3     1 1      0.0000
     9 HN       5.0798   0.9062   0.2826   H         1 1      0.0000
    10 C        3.5320   2.0902   1.1143   C.3       1 1      0.0000
    11 HC       4.3132   2.6559   1.6177   H         1 1      0.0000
    12 HB       3.0717   2.7377   0.3713   H         1 1      0.0000
    13 HA       2.7756   1.8283   1.8512   H         1 1      0.0000
    14 H12B     1.7607  -0.1606   1.4147   H         1 1      0.0000
    15 O1       1.4275   0.6323  -1.8099   O.3       1 1      0.0000
    16 H11      1.3153   1.7274  -0.0639   H         1 1      0.0000
    17 OH1      0.8971   1.2934  -2.3197   H         1 1      0.0000
    18 C10     -0.3899   0.4419  -0.2202   C.ar      1 1      0.0000
    19 C9      -0.9255  -0.8069  -0.5050   C.ar      1 1      0.0000
    20 C5      -1.2306   1.4346   0.2647   C.ar      1 1      0.0000
    21 C8      -2.2699  -1.0628  -0.3138   C.ar      1 1      0.0000
    22 H9      -0.2797  -1.5926  -0.8830   H         1 1      0.0000
    23 C6      -2.5767   1.1915   0.4603   C.ar      1 1      0.0000
    24 H5      -0.8252   2.4148   0.4932   H         1 1      0.0000
    25 C7      -3.0967  -0.0605   0.1698   C.ar      1 1      0.0000
    26 H8      -2.6763  -2.0428  -0.5409   H         1 1      0.0000
    27 H6      -3.2233   1.9761   0.8391   H         1 1      0.0000
    28 NO      -4.3953  -0.3013   0.3561   N.pl3     1 1      0.0000
    29 ON2     -5.2042   0.6598   0.3996   O.2       1 1      0.0000
    30 ON1     -4.7940  -1.4863   0.4858   O.2       1 1      0.0000
    31 C15      4.2315  -2.5166   0.1377   C.3       1 1      0.0000
    32 H15A     3.2606  -2.8904   0.4564   H         1 1      0.0000
    33 H15C     4.7237  -3.2983  -0.4370   H         1 1      0.0000
    34 H15B     4.8283  -2.3226   1.0265   H         1 1      0.0000
@<TRIPOS>BOND
     1     1     2    1
     2     1    15    1
     3     1    16    1
     4     1    18    1
     5     2     3    1
     6     2     4    1
     7     2    14    1
     8     4     5    1
     9     4     8    2
    10     5     6    1
    11     5     7    1
    12     5    31    1
    13     8     9    1
    14     8    10    1
    15    10    11    1
    16    10    12    1
    17    10    13    1
    18    15    17    1
    19    18    19   ar
    20    18    20   ar
    21    19    21   ar
    22    19    22    1
    23    20    23   ar
    24    20    24    1
    25    21    25   ar
    26    21    26    1
    27    23    25   ar
    28    23    27    1
    29    25    28   un
    30    28    29   un
    31    28    30   un
    32    31    32    1
    33    31    33    1
    34    31    34    1
@<TRIPOS>SUBSTRUCTURE
     1 1           1 GROUP             0 ****  ****    0  
@<TRIPOS>MOLECULE
Molecule Name_00001_00001_00073
    34    34     1     0     0
SMALL
NO_CHARGES
****
Generated from the CSD

@<TRIPOS>ATOM
     1 C11      1.3955  -0.1492   1.3488   C.3       1 1      0.0000
     2 C12      2.2941   0.8119   0.5767   C.3       1 1      0.0000
     3 H12A     3.0703   1.1961   1.2496   H         1 1      0.0000
     4 C13      2.9460   0.1727  -0.6119   C.2       1 1      0.0000
     5 C14      4.2078  -0.6014  -0.3788   C.3       1 1      0.0000
     6 H14B     4.8734  -0.0171   0.2685   H         1 1      0.0000
     7 H14A     4.7206  -0.7504  -1.3370   H         1 1      0.0000
     8 N        2.4452   0.3053  -1.8235   N.pl3     1 1      0.0000
     9 HN       2.9607  -0.1412  -2.5818   H         1 1      0.0000
    10 C        1.1665   0.9082  -2.1706   C.3       1 1      0.0000
    11 HC       0.5802   0.2355  -2.7930   H         1 1      0.0000
    12 HB       0.5877   1.1320  -1.2771   H         1 1      0.0000
    13 HA       1.3140   1.8355  -2.7202   H         1 1      0.0000
    14 H12B     1.6952   1.6662   0.2378   H         1 1      0.0000
    15 O1       1.4658   0.1812   2.7334   O.3       1 1      0.0000
    16 H11      1.7666  -1.1762   1.2077   H         1 1      0.0000
    17 OH1      0.9018  -0.4459   3.2499   H         1 1      0.0000
    18 C10     -0.0314  -0.0710   0.8462   C.ar      1 1      0.0000
    19 C9      -0.4902  -0.9560  -0.1201   C.ar      1 1      0.0000
    20 C5      -0.9063   0.8834   1.3474   C.ar      1 1      0.0000
    21 C8      -1.7915  -0.8920  -0.5804   C.ar      1 1      0.0000
    22 H9       0.1823  -1.7082  -0.5194   H         1 1      0.0000
    23 C6      -2.2099   0.9578   0.8954   C.ar      1 1      0.0000
    24 H5      -0.5616   1.5803   2.1042   H         1 1      0.0000
    25 C7      -2.6526   0.0677  -0.0709   C.ar      1 1      0.0000
    26 H8      -2.1375  -1.5891  -1.3364   H         1 1      0.0000
    27 H6      -2.8835   1.7089   1.2947   H         1 1      0.0000
    28 NO      -3.9098   0.1348  -0.5115   N.pl3     1 1      0.0000
    29 ON2     -4.5586   1.2026  -0.3749   O.2       1 1      0.0000
    30 ON1     -4.4299  -0.8707  -1.0578   O.2       1 1      0.0000
    31 C15      3.9471  -1.9549   0.2648   C.3       1 1      0.0000
    32 H15A     3.0674  -2.4254  -0.1694   H         1 1      0.0000
    33 H15C     4.7948  -2.6211   0.1186   H         1 1      0.0000
    34 H15B     3.7809  -1.8477   1.3346   H         1 1      0.0000
@<TRIPOS>BOND
     1     1     2    1
     2     1    15    1
     3     1    16    1
     4     1    18    1
     5     2     3    1
     6     2     4    1
     7     2    14    1
     8     4     5    1
     9     4     8    2
    10     5     6    1
    11     5     7    1
    12     5    31    1
    13     8     9    1
    14     8    10    1
    15    10    11    1
    16    10    12    1
    17    10    13    1
    18    15    17    1
    19    18    19   ar
    20    18    20   ar
    21    19    21   ar
    22    19    22    1
    23    20    23   ar
    24    20    24    1
    25    21    25   ar
    26    21    26    1
    27    23    25   ar
    28    23    27    1
    29    25    28   un
    30    28    29   un
    31    28    30   un
    32    31    32    1
    33    31    33    1
    34    31    34    1
@<TRIPOS>SUBSTRUCTURE
     1 1           1 GROUP             0 ****  ****    0  
@<TRIPOS>MOLECULE
Molecule Name_00001_00001_00074
    34    34     1     0     0
SMALL
NO_CHARGES
****
Generated from the CSD

@<TRIPOS>ATOM
     1 C11      1.2951  -0.1951   1.4022   C.3       1 1      0.0000
     2 C12      2.2605   0.5730   0.5048   C.3       1 1      0.0000
     3 H12A     3.0745   0.9784   1.1180   H         1 1      0.0000
     4 C13      2.8416  -0.2743  -0.5863   C.2       1 1      0.0000
     5 C14      4.0100  -1.1465  -0.2400   C.3       1 1      0.0000
     6 H14B     4.1749  -1.8655  -1.0520   H         1 1      0.0000
     7 H14A     3.7769  -1.7164   0.6679   H         1 1      0.0000
     8 N        2.3620  -0.2378  -1.8131   N.pl3     1 1      0.0000
     9 HN       2.8275  -0.8274  -2.5028   H         1 1      0.0000
    10 C        1.1584   0.4534  -2.2518   C.3       1 1      0.0000
    11 HC       0.5386  -0.2019  -2.8602   H         1 1      0.0000
    12 HB       0.5672   0.7821  -1.3999   H         1 1      0.0000
    13 HA       1.4115   1.3284  -2.8469   H         1 1      0.0000
    14 H12B     1.7304   1.4207   0.0533   H         1 1      0.0000
    15 O1       1.4010   0.3220   2.7260   O.3       1 1      0.0000
    16 H11      1.5836  -1.2576   1.4099   H         1 1      0.0000
    17 OH1      0.7935  -0.1792   3.3242   H         1 1      0.0000
    18 C10     -0.1249  -0.0773   0.8880   C.ar      1 1      0.0000
    19 C9      -0.6586  -1.0518   0.0554   C.ar      1 1      0.0000
    20 C5      -0.9188   1.0043   1.2449   C.ar      1 1      0.0000
    21 C8      -1.9542  -0.9518  -0.4144   C.ar      1 1      0.0000
    22 H9      -0.0500  -1.9034  -0.2302   H         1 1      0.0000
    23 C6      -2.2158   1.1159   0.7819   C.ar      1 1      0.0000
    24 H5      -0.5151   1.7724   1.8964   H         1 1      0.0000
    25 C7      -2.7338   0.1352  -0.0499   C.ar      1 1      0.0000
    26 H8      -2.3592  -1.7198  -1.0650   H         1 1      0.0000
    27 H6      -2.8257   1.9666   1.0677   H         1 1      0.0000
    28 NO      -3.9851   0.2375  -0.5005   N.pl3     1 1      0.0000
    29 ON2     -4.5474   1.3615  -0.5196   O.2       1 1      0.0000
    30 ON1     -4.5863  -0.7914  -0.9004   O.2       1 1      0.0000
    31 C15      5.2841  -0.3465  -0.0150   C.3       1 1      0.0000
    32 H15A     5.1561   0.3612   0.8014   H         1 1      0.0000
    33 H15C     6.1139  -1.0047   0.2340   H         1 1      0.0000
    34 H15B     5.5516   0.2125  -0.9093   H         1 1      0.0000
@<TRIPOS>BOND
     1     1     2    1
     2     1    15    1
     3     1    16    1
     4     1    18    1
     5     2     3    1
     6     2     4    1
     7     2    14    1
     8     4     5    1
     9     4     8    2
    10     5     6    1
    11     5     7    1
    12     5    31    1
    13     8     9    1
    14     8    10    1
    15    10    11    1
    16    10    12    1
    17    10    13    1
    18    15    17    1
    19    18    19   ar
    20    18    20   ar
    21    19    21   ar
    22    19    22    1
    23    20    23   ar
    24    20    24    1
    25    21    25   ar
    26    21    26    1
    27    23    25   ar
    28    23    27    1
    29    25    28   un
    30    28    29   un
    31    28    30   un
    32    31    32    1
    33    31    33    1
    34    31    34    1
@<TRIPOS>SUBSTRUCTURE
     1 1           1 GROUP             0 ****  ****    0  
@<TRIPOS>MOLECULE
Molecule Name_00001_00001_00075
    34    34     1     0     0
SMALL
NO_CHARGES
****
Generated from the CSD

@<TRIPOS>ATOM
     1 C11      1.3966  -0.1488   1.3510   C.3       1 1      0.0000
     2 C12      2.2919   0.8126   0.5753   C.3       1 1      0.0000
     3 H12A     3.0688   1.1993   1.2459   H         1 1      0.0000
     4 C13      2.9424   0.1725  -0.6136   C.2       1 1      0.0000
     5 C14      4.2060  -0.5990  -0.3818   C.3       1 1      0.0000
     6 H14B     4.8720  -0.0125   0.2631   H         1 1      0.0000
     7 H14A     4.7171  -0.7487  -1.3408   H         1 1      0.0000
     8 N        2.4388   0.3022  -1.8244   N.pl3     1 1      0.0000
     9 HN       2.9535  -0.1447  -2.5830   H         1 1      0.0000
    10 C        1.1584   0.9023  -2.1698   C.3       1 1      0.0000
    11 HC       0.5720   0.2274  -2.7898   H         1 1      0.0000
    12 HB       0.5810   1.1265  -1.2755   H         1 1      0.0000
    13 HA       1.3031   1.8289  -2.7213   H         1 1      0.0000
    14 H12B     1.6907   1.6653   0.2362   H         1 1      0.0000
    15 O1       1.4692   0.1842   2.7348   O.3       1 1      0.0000
    16 H11      1.7692  -1.1753   1.2109   H         1 1      0.0000
    17 OH1      0.9074  -0.4430   3.2536   H         1 1      0.0000
    18 C10     -0.0314  -0.0740   0.8512   C.ar      1 1      0.0000
    19 C9      -0.9054   0.8834   1.3486   C.ar      1 1      0.0000
    20 C5      -0.4891  -0.9579  -0.1166   C.ar      1 1      0.0000
    21 C8      -2.2082   0.9589   0.8945   C.ar      1 1      0.0000
    22 H9      -0.5606   1.5817   2.1040   H         1 1      0.0000
    23 C6      -1.7896  -0.8927  -0.5789   C.ar      1 1      0.0000
    24 H5       0.1836  -1.7100  -0.5154   H         1 1      0.0000
    25 C7      -2.6506   0.0681  -0.0714   C.ar      1 1      0.0000
    26 H8      -2.8815   1.7113   1.2918   H         1 1      0.0000
    27 H6      -2.1352  -1.5899  -1.3352   H         1 1      0.0000
    28 NO      -3.9072   0.1358  -0.5134   N.pl3     1 1      0.0000
    29 ON2     -4.4276  -0.8698  -1.0593   O.2       1 1      0.0000
    30 ON1     -4.5553   1.2043  -0.3785   O.2       1 1      0.0000
    31 C15      3.9491  -1.9519   0.2646   C.3       1 1      0.0000
    32 H15A     2.9844  -2.3495  -0.0436   H         1 1      0.0000
    33 H15C     4.7174  -2.6676  -0.0204   H         1 1      0.0000
    34 H15B     3.9501  -1.8675   1.3493   H         1 1      0.0000
@<TRIPOS>BOND
     1     1     2    1
     2     1    15    1
     3     1    16    1
     4     1    18    1
     5     2     3    1
     6     2     4    1
     7     2    14    1
     8     4     5    1
     9     4     8    2
    10     5     6    1
    11     5     7    1
    12     5    31    1
    13     8     9    1
    14     8    10    1
    15    10    11    1
    16    10    12    1
    17    10    13    1
    18    15    17    1
    19    18    19   ar
    20    18    20   ar
    21    19    21   ar
    22    19    22    1
    23    20    23   ar
    24    20    24    1
    25    21    25   ar
    26    21    26    1
    27    23    25   ar
    28    23    27    1
    29    25    28   un
    30    28    29   un
    31    28    30   un
    32    31    32    1
    33    31    33    1
    34    31    34    1
@<TRIPOS>SUBSTRUCTURE
     1 1           1 GROUP             0 ****  ****    0  
@<TRIPOS>MOLECULE
Molecule Name_00001_00001_00076
    34    34     1     0     0
SMALL
NO_CHARGES
****
Generated from the CSD

@<TRIPOS>ATOM
     1 C11      1.2962  -0.1938   1.4051   C.3       1 1      0.0000
     2 C12      2.2585   0.5738   0.5039   C.3       1 1      0.0000
     3 H12A     3.0734   0.9816   1.1144   H         1 1      0.0000
     4 C13      2.8383  -0.2751  -0.5867   C.2       1 1      0.0000
     5 C14      4.0086  -1.1450  -0.2413   C.3       1 1      0.0000
     6 H14B     4.1727  -1.8654  -1.0522   H         1 1      0.0000
     7 H14A     3.7783  -1.7133   0.6683   H         1 1      0.0000
     8 N        2.3559  -0.2417  -1.8125   N.pl3     1 1      0.0000
     9 HN       2.8206  -0.8322  -2.5021   H         1 1      0.0000
    10 C        1.1504   0.4469  -2.2500   C.3       1 1      0.0000
    11 HC       0.5301  -0.2104  -2.8557   H         1 1      0.0000
    12 HB       0.5606   0.7765  -1.3974   H         1 1      0.0000
    13 HA       1.4009   1.3210  -2.8474   H         1 1      0.0000
    14 H12B     1.7263   1.4198   0.0518   H         1 1      0.0000
    15 O1       1.4045   0.3263   2.7275   O.3       1 1      0.0000
    16 H11      1.5862  -1.2559   1.4144   H         1 1      0.0000
    17 OH1      0.7990  -0.1744   3.3282   H         1 1      0.0000
    18 C10     -0.1251  -0.0790   0.8938   C.ar      1 1      0.0000
    19 C9      -0.9178   1.0051   1.2458   C.ar      1 1      0.0000
    20 C5      -0.6574  -1.0532   0.0600   C.ar      1 1      0.0000
    21 C8      -2.2139   1.1172   0.7802   C.ar      1 1      0.0000
    22 H9      -0.5140   1.7747   1.8953   H         1 1      0.0000
    23 C6      -1.9521  -0.9527  -0.4123   C.ar      1 1      0.0000
    24 H5      -0.0486  -1.9050  -0.2245   H         1 1      0.0000
    25 C7      -2.7315   0.1354  -0.0506   C.ar      1 1      0.0000
    26 H8      -2.8233   1.9691   1.0632   H         1 1      0.0000
    27 H6      -2.3566  -1.7211  -1.0628   H         1 1      0.0000
    28 NO      -3.9821   0.2379  -0.5030   N.pl3     1 1      0.0000
    29 ON2     -4.5835  -0.7912  -0.9020   O.2       1 1      0.0000
    30 ON1     -4.5435   1.3623  -0.5247   O.2       1 1      0.0000
    31 C15      5.2822  -0.3428  -0.0208   C.3       1 1      0.0000
    32 H15A     5.1551   0.3664   0.7944   H         1 1      0.0000
    33 H15C     6.1134  -0.9994   0.2277   H         1 1      0.0000
    34 H15B     5.5469   0.2147  -0.9169   H         1 1      0.0000
@<TRIPOS>BOND
     1     1     2    1
     2     1    15    1
     3     1    16    1
     4     1    18    1
     5     2     3    1
     6     2     4    1
     7     2    14    1
     8     4     5    1
     9     4     8    2
    10     5     6    1
    11     5     7    1
    12     5    31    1
    13     8     9    1
    14     8    10    1
    15    10    11    1
    16    10    12    1
    17    10    13    1
    18    15    17    1
    19    18    19   ar
    20    18    20   ar
    21    19    21   ar
    22    19    22    1
    23    20    23   ar
    24    20    24    1
    25    21    25   ar
    26    21    26    1
    27    23    25   ar
    28    23    27    1
    29    25    28   un
    30    28    29   un
    31    28    30   un
    32    31    32    1
    33    31    33    1
    34    31    34    1
@<TRIPOS>SUBSTRUCTURE
     1 1           1 GROUP             0 ****  ****    0  
@<TRIPOS>MOLECULE
Molecule Name_00001_00001_00077
    34    34     1     0     0
SMALL
NO_CHARGES
****
Generated from the CSD

@<TRIPOS>ATOM
     1 C11      1.4016   1.3688   1.0073   C.3       1 1      0.0000
     2 C12      2.4281   1.1575  -0.1013   C.3       1 1      0.0000
     3 H12A     3.3714   1.6370   0.1873   H         1 1      0.0000
     4 C13      2.6815  -0.2907  -0.3927   C.2       1 1      0.0000
     5 C14      2.3086  -0.8008  -1.7515   C.3       1 1      0.0000
     6 H14B     2.7686  -1.7849  -1.9046   H         1 1      0.0000
     7 H14A     2.7113  -0.1222  -2.5135   H         1 1      0.0000
     8 N        3.1900  -1.0955   0.5185   N.pl3     1 1      0.0000
     9 HN       3.3105  -2.0717   0.2489   H         1 1      0.0000
    10 C        3.7181  -0.7078   1.8183   C.3       1 1      0.0000
    11 HC       4.5003  -1.3940   2.1360   H         1 1      0.0000
    12 HB       4.1417   0.2935   1.7821   H         1 1      0.0000
    13 HA       2.9332  -0.7170   2.5717   H         1 1      0.0000
    14 H12B     2.0721   1.6477  -1.0158   H         1 1      0.0000
    15 O1       1.2940   2.7669   1.2621   O.3       1 1      0.0000
    16 H11      1.7541   0.8656   1.9209   H         1 1      0.0000
    17 OH1      0.6446   2.9188   1.9923   H         1 1      0.0000
    18 C10      0.0596   0.7861   0.6144   C.ar      1 1      0.0000
    19 C9      -0.2970  -0.4964   1.0085   C.ar      1 1      0.0000
    20 C5      -0.8388   1.5269  -0.1417   C.ar      1 1      0.0000
    21 C8      -1.5209  -1.0325   0.6561   C.ar      1 1      0.0000
    22 H9       0.3947  -1.0859   1.6011   H         1 1      0.0000
    23 C6      -2.0657   1.0023  -0.5006   C.ar      1 1      0.0000
    24 H5      -0.5739   2.5313  -0.4551   H         1 1      0.0000
    25 C7      -2.4066  -0.2806  -0.1005   C.ar      1 1      0.0000
    26 H8      -1.7873  -2.0364   0.9698   H         1 1      0.0000
    27 H6      -2.7587   1.5912  -1.0924   H         1 1      0.0000
    28 NO      -3.5893  -0.7927  -0.4440   N.pl3     1 1      0.0000
    29 ON2     -4.2105  -0.3141  -1.4264   O.2       1 1      0.0000
    30 ON1     -4.0679  -1.7473   0.2189   O.2       1 1      0.0000
    31 C15      0.8029  -0.9198  -1.9330   C.3       1 1      0.0000
    32 H15A     0.3252   0.0533  -1.8402   H         1 1      0.0000
    33 H15C     0.5635  -1.3226  -2.9149   H         1 1      0.0000
    34 H15B     0.3749  -1.5805  -1.1820   H         1 1      0.0000
@<TRIPOS>BOND
     1     1     2    1
     2     1    15    1
     3     1    16    1
     4     1    18    1
     5     2     3    1
     6     2     4    1
     7     2    14    1
     8     4     5    1
     9     4     8    2
    10     5     6    1
    11     5     7    1
    12     5    31    1
    13     8     9    1
    14     8    10    1
    15    10    11    1
    16    10    12    1
    17    10    13    1
    18    15    17    1
    19    18    19   ar
    20    18    20   ar
    21    19    21   ar
    22    19    22    1
    23    20    23   ar
    24    20    24    1
    25    21    25   ar
    26    21    26    1
    27    23    25   ar
    28    23    27    1
    29    25    28   un
    30    28    29   un
    31    28    30   un
    32    31    32    1
    33    31    33    1
    34    31    34    1
@<TRIPOS>SUBSTRUCTURE
     1 1           1 GROUP             0 ****  ****    0  
@<TRIPOS>MOLECULE
Molecule Name_00001_00001_00078
    34    34     1     0     0
SMALL
NO_CHARGES
****
Generated from the CSD

@<TRIPOS>ATOM
     1 C11      1.4029   1.3694   1.0095   C.3       1 1      0.0000
     2 C12      2.4261   1.1573  -0.1020   C.3       1 1      0.0000
     3 H12A     3.3706   1.6362   0.1840   H         1 1      0.0000
     4 C13      2.6777  -0.2910  -0.3941   C.2       1 1      0.0000
     5 C14      2.3024  -0.8004  -1.7525   C.3       1 1      0.0000
     6 H14B     2.7613  -1.7849  -1.9066   H         1 1      0.0000
     7 H14A     2.7047  -0.1219  -2.5149   H         1 1      0.0000
     8 N        3.1865  -1.0966   0.5162   N.pl3     1 1      0.0000
     9 HN       3.3057  -2.0728   0.2462   H         1 1      0.0000
    10 C        3.7168  -0.7098   1.8154   C.3       1 1      0.0000
    11 HC       4.4987  -1.3969   2.1319   H         1 1      0.0000
    12 HB       4.1414   0.2911   1.7789   H         1 1      0.0000
    13 HA       2.9329  -0.7184   2.5699   H         1 1      0.0000
    14 H12B     2.0679   1.6478  -1.0155   H         1 1      0.0000
    15 O1       1.2975   2.7675   1.2650   O.3       1 1      0.0000
    16 H11      1.7573   0.8656   1.9220   H         1 1      0.0000
    17 OH1      0.6502   2.9199   1.9971   H         1 1      0.0000
    18 C10      0.0592   0.7883   0.6200   C.ar      1 1      0.0000
    19 C9      -0.8383   1.5283  -0.1379   C.ar      1 1      0.0000
    20 C5      -0.2954  -0.4961   1.0097   C.ar      1 1      0.0000
    21 C8      -2.0641   1.0028  -0.4991   C.ar      1 1      0.0000
    22 H9      -0.5735   2.5329  -0.4508   H         1 1      0.0000
    23 C6      -1.5182  -1.0331   0.6550   C.ar      1 1      0.0000
    24 H5       0.3970  -1.0864   1.6008   H         1 1      0.0000
    25 C7      -2.4041  -0.2810  -0.1011   C.ar      1 1      0.0000
    26 H8      -2.7569   1.5917  -1.0911   H         1 1      0.0000
    27 H6      -1.7836  -2.0380   0.9665   H         1 1      0.0000
    28 NO      -3.5861  -0.7936  -0.4463   N.pl3     1 1      0.0000
    29 ON2     -4.0643  -1.7497   0.2148   O.2       1 1      0.0000
    30 ON1     -4.2069  -0.3142  -1.4285   O.2       1 1      0.0000
    31 C15      0.7964  -0.9179  -1.9320   C.3       1 1      0.0000
    32 H15A     0.3195   0.0553  -1.8362   H         1 1      0.0000
    33 H15C     0.5552  -1.3184  -2.9145   H         1 1      0.0000
    34 H15B     0.3691  -1.5801  -1.1819   H         1 1      0.0000
@<TRIPOS>BOND
     1     1     2    1
     2     1    15    1
     3     1    16    1
     4     1    18    1
     5     2     3    1
     6     2     4    1
     7     2    14    1
     8     4     5    1
     9     4     8    2
    10     5     6    1
    11     5     7    1
    12     5    31    1
    13     8     9    1
    14     8    10    1
    15    10    11    1
    16    10    12    1
    17    10    13    1
    18    15    17    1
    19    18    19   ar
    20    18    20   ar
    21    19    21   ar
    22    19    22    1
    23    20    23   ar
    24    20    24    1
    25    21    25   ar
    26    21    26    1
    27    23    25   ar
    28    23    27    1
    29    25    28   un
    30    28    29   un
    31    28    30   un
    32    31    32    1
    33    31    33    1
    34    31    34    1
@<TRIPOS>SUBSTRUCTURE
     1 1           1 GROUP             0 ****  ****    0  
@<TRIPOS>MOLECULE
Molecule Name_00001_00001_00079
    34    34     1     0     0
SMALL
NO_CHARGES
****
Generated from the CSD

@<TRIPOS>ATOM
     1 C11      1.0761   0.1995   0.7102   C.3       1 1      0.0000
     2 C12      1.8246   0.4025  -0.6035   C.3       1 1      0.0000
     3 H12A     1.8370   1.4717  -0.8477   H         1 1      0.0000
     4 C13      3.2331  -0.1076  -0.5566   C.2       1 1      0.0000
     5 C14      3.5395  -1.3698  -1.3042   C.3       1 1      0.0000
     6 H14B     3.3176  -1.2202  -2.3680   H         1 1      0.0000
     7 H14A     2.8879  -2.1724  -0.9371   H         1 1      0.0000
     8 N        4.1656   0.5140   0.1365   N.pl3     1 1      0.0000
     9 HN       5.0934   0.0904   0.1360   H         1 1      0.0000
    10 C        4.0402   1.8085   0.7903   C.3       1 1      0.0000
    11 HC       4.9893   2.3402   0.7763   H         1 1      0.0000
    12 HB       3.2994   2.4268   0.2880   H         1 1      0.0000
    13 HA       3.7347   1.6885   1.8276   H         1 1      0.0000
    14 H12B     1.2848  -0.1156  -1.4057   H         1 1      0.0000
    15 O1       1.3694   1.2969   1.5709   O.3       1 1      0.0000
    16 H11      1.4303  -0.7296   1.1831   H         1 1      0.0000
    17 OH1      0.9051   1.1701   2.4349   H         1 1      0.0000
    18 C10     -0.4148   0.0871   0.4666   C.ar      1 1      0.0000
    19 C9      -1.1238  -1.0179   0.9182   C.ar      1 1      0.0000
    20 C5      -1.0987   1.0898  -0.2075   C.ar      1 1      0.0000
    21 C8      -2.4843  -1.1249   0.7021   C.ar      1 1      0.0000
    22 H9      -0.6023  -1.8082   1.4481   H         1 1      0.0000
    23 C6      -2.4592   0.9947  -0.4300   C.ar      1 1      0.0000
    24 H5      -0.5576   1.9598  -0.5644   H         1 1      0.0000
    25 C7      -3.1527  -0.1157   0.0261   C.ar      1 1      0.0000
    26 H8      -3.0267  -1.9939   1.0595   H         1 1      0.0000
    27 H6      -2.9819   1.7850  -0.9588   H         1 1      0.0000
    28 NO      -4.4660  -0.2134  -0.1860   N.pl3     1 1      0.0000
    29 ON2     -4.9966   0.4553  -1.1086   O.2       1 1      0.0000
    30 ON1     -5.1564  -0.9729   0.5395   O.2       1 1      0.0000
    31 C15      4.9919  -1.7957  -1.1521   C.3       1 1      0.0000
    32 H15A     5.2345  -1.9726  -0.1064   H         1 1      0.0000
    33 H15C     5.1847  -2.7129  -1.7047   H         1 1      0.0000
    34 H15B     5.6612  -1.0255  -1.5297   H         1 1      0.0000
@<TRIPOS>BOND
     1     1     2    1
     2     1    15    1
     3     1    16    1
     4     1    18    1
     5     2     3    1
     6     2     4    1
     7     2    14    1
     8     4     5    1
     9     4     8    2
    10     5     6    1
    11     5     7    1
    12     5    31    1
    13     8     9    1
    14     8    10    1
    15    10    11    1
    16    10    12    1
    17    10    13    1
    18    15    17    1
    19    18    19   ar
    20    18    20   ar
    21    19    21   ar
    22    19    22    1
    23    20    23   ar
    24    20    24    1
    25    21    25   ar
    26    21    26    1
    27    23    25   ar
    28    23    27    1
    29    25    28   un
    30    28    29   un
    31    28    30   un
    32    31    32    1
    33    31    33    1
    34    31    34    1
@<TRIPOS>SUBSTRUCTURE
     1 1           1 GROUP             0 ****  ****    0  
@<TRIPOS>MOLECULE
Molecule Name_00001_00001_00080
    34    34     1     0     0
SMALL
NO_CHARGES
****
Generated from the CSD

@<TRIPOS>ATOM
     1 C11      1.0764   0.2013   0.7140   C.3       1 1      0.0000
     2 C12      1.8226   0.4040  -0.6011   C.3       1 1      0.0000
     3 H12A     1.8355   1.4733  -0.8450   H         1 1      0.0000
     4 C13      3.2307  -0.1075  -0.5572   C.2       1 1      0.0000
     5 C14      3.5343  -1.3696  -1.3058   C.3       1 1      0.0000
     6 H14B     3.3103  -1.2195  -2.3692   H         1 1      0.0000
     7 H14A     2.8827  -2.1717  -0.9378   H         1 1      0.0000
     8 N        4.1652   0.5130   0.1342   N.pl3     1 1      0.0000
     9 HN       5.0925   0.0885   0.1316   H         1 1      0.0000
    10 C        4.0423   1.8074   0.7887   C.3       1 1      0.0000
    11 HC       4.9919   2.3382   0.7729   H         1 1      0.0000
    12 HB       3.3011   2.4266   0.2880   H         1 1      0.0000
    13 HA       3.7388   1.6874   1.8266   H         1 1      0.0000
    14 H12B     1.2806  -0.1133  -1.4025   H         1 1      0.0000
    15 O1       1.3725   1.2981   1.5745   O.3       1 1      0.0000
    16 H11      1.4307  -0.7282   1.1858   H         1 1      0.0000
    17 OH1      0.9098   1.1716   2.4393   H         1 1      0.0000
    18 C10     -0.4151   0.0905   0.4734   C.ar      1 1      0.0000
    19 C9      -1.0984   1.0914  -0.2039   C.ar      1 1      0.0000
    20 C5      -1.1232  -1.0166   0.9212   C.ar      1 1      0.0000
    21 C8      -2.4582   0.9948  -0.4294   C.ar      1 1      0.0000
    22 H9      -0.5572   1.9615  -0.5610   H         1 1      0.0000
    23 C6      -2.4831  -1.1252   0.7020   C.ar      1 1      0.0000
    24 H5      -0.6016  -1.8072   1.4504   H         1 1      0.0000
    25 C7      -3.1514  -0.1165   0.0252   C.ar      1 1      0.0000
    26 H8      -2.9806   1.7843  -0.9594   H         1 1      0.0000
    27 H6      -3.0251  -1.9952   1.0577   H         1 1      0.0000
    28 NO      -4.4642  -0.2154  -0.1891   N.pl3     1 1      0.0000
    29 ON2     -5.1552  -0.9757   0.5350   O.2       1 1      0.0000
    30 ON1     -4.9939   0.4531  -1.1124   O.2       1 1      0.0000
    31 C15      4.9866  -1.7970  -1.1569   C.3       1 1      0.0000
    32 H15A     5.2311  -1.9746  -0.1117   H         1 1      0.0000
    33 H15C     5.1774  -2.7142  -1.7101   H         1 1      0.0000
    34 H15B     5.6559  -1.0274  -1.5355   H         1 1      0.0000
@<TRIPOS>BOND
     1     1     2    1
     2     1    15    1
     3     1    16    1
     4     1    18    1
     5     2     3    1
     6     2     4    1
     7     2    14    1
     8     4     5    1
     9     4     8    2
    10     5     6    1
    11     5     7    1
    12     5    31    1
    13     8     9    1
    14     8    10    1
    15    10    11    1
    16    10    12    1
    17    10    13    1
    18    15    17    1
    19    18    19   ar
    20    18    20   ar
    21    19    21   ar
    22    19    22    1
    23    20    23   ar
    24    20    24    1
    25    21    25   ar
    26    21    26    1
    27    23    25   ar
    28    23    27    1
    29    25    28   un
    30    28    29   un
    31    28    30   un
    32    31    32    1
    33    31    33    1
    34    31    34    1
@<TRIPOS>SUBSTRUCTURE
     1 1           1 GROUP             0 ****  ****    0  
@<TRIPOS>MOLECULE
Molecule Name_00001_00001_00081
    34    34     1     0     0
SMALL
NO_CHARGES
****
Generated from the CSD

@<TRIPOS>ATOM
     1 C11      1.1827   0.8612   1.2529   C.3       1 1      0.0000
     2 C12      2.1338   1.0532   0.0756   C.3       1 1      0.0000
     3 H12A     2.8530   1.8441   0.3210   H         1 1      0.0000
     4 C13      2.8798  -0.1968  -0.2809   C.2       1 1      0.0000
     5 C14      2.1708  -1.2111  -1.1261   C.3       1 1      0.0000
     6 H14B     1.1643  -1.3753  -0.7219   H         1 1      0.0000
     7 H14A     2.7111  -2.1643  -1.0731   H         1 1      0.0000
     8 N        4.1056  -0.4118   0.1521   N.pl3     1 1      0.0000
     9 HN       4.5357  -1.2969  -0.1159   H         1 1      0.0000
    10 C        4.9531   0.5375   0.8588   C.3       1 1      0.0000
    11 HC       6.0032   0.2791   0.7392   H         1 1      0.0000
    12 HB       4.8081   1.5460   0.4775   H         1 1      0.0000
    13 HA       4.7245   0.5410   1.9225   H         1 1      0.0000
    14 H12B     1.5587   1.3859  -0.7973   H         1 1      0.0000
    15 O1       1.1229   2.0805   1.9882   O.3       1 1      0.0000
    16 H11      1.5794   0.0691   1.9068   H         1 1      0.0000
    17 OH1      0.5234   1.9659   2.7665   H         1 1      0.0000
    18 C10     -0.1939   0.4532   0.7698   C.ar      1 1      0.0000
    19 C9      -0.7869  -0.7151   1.2290   C.ar      1 1      0.0000
    20 C5      -0.8883   1.2436  -0.1361   C.ar      1 1      0.0000
    21 C8      -2.0437  -1.0911   0.7948   C.ar      1 1      0.0000
    22 H9      -0.2563  -1.3414   1.9385   H         1 1      0.0000
    23 C6      -2.1456   0.8787  -0.5781   C.ar      1 1      0.0000
    24 H5      -0.4376   2.1602  -0.5020   H         1 1      0.0000
    25 C7      -2.7237  -0.2917  -0.1111   C.ar      1 1      0.0000
    26 H8      -2.4958  -2.0069   1.1608   H         1 1      0.0000
    27 H6      -2.6776   1.5048  -1.2867   H         1 1      0.0000
    28 NO      -3.9370  -0.6495  -0.5343   N.pl3     1 1      0.0000
    29 ON2     -4.3804  -0.1815  -1.6133   O.2       1 1      0.0000
    30 ON1     -4.6217  -1.4503   0.1511   O.2       1 1      0.0000
    31 C15      2.0605  -0.7788  -2.5804   C.3       1 1      0.0000
    32 H15A     3.0470  -0.6295  -3.0143   H         1 1      0.0000
    33 H15C     1.5421  -1.5330  -3.1687   H         1 1      0.0000
    34 H15B     1.5085   0.1550  -2.6643   H         1 1      0.0000
@<TRIPOS>BOND
     1     1     2    1
     2     1    15    1
     3     1    16    1
     4     1    18    1
     5     2     3    1
     6     2     4    1
     7     2    14    1
     8     4     5    1
     9     4     8    2
    10     5     6    1
    11     5     7    1
    12     5    31    1
    13     8     9    1
    14     8    10    1
    15    10    11    1
    16    10    12    1
    17    10    13    1
    18    15    17    1
    19    18    19   ar
    20    18    20   ar
    21    19    21   ar
    22    19    22    1
    23    20    23   ar
    24    20    24    1
    25    21    25   ar
    26    21    26    1
    27    23    25   ar
    28    23    27    1
    29    25    28   un
    30    28    29   un
    31    28    30   un
    32    31    32    1
    33    31    33    1
    34    31    34    1
@<TRIPOS>SUBSTRUCTURE
     1 1           1 GROUP             0 ****  ****    0  
@<TRIPOS>MOLECULE
Molecule Name_00001_00001_00082
    34    34     1     0     0
SMALL
NO_CHARGES
****
Generated from the CSD

@<TRIPOS>ATOM
     1 C11      1.1836   0.8619   1.2563   C.3       1 1      0.0000
     2 C12      2.1324   1.0538   0.0773   C.3       1 1      0.0000
     3 H12A     2.8533   1.8434   0.3219   H         1 1      0.0000
     4 C13      2.8760  -0.1969  -0.2820   C.2       1 1      0.0000
     5 C14      2.1637  -1.2093  -1.1267   C.3       1 1      0.0000
     6 H14B     1.1578  -1.3725  -0.7206   H         1 1      0.0000
     7 H14A     2.7028  -2.1634  -1.0759   H         1 1      0.0000
     8 N        4.1024  -0.4140   0.1482   N.pl3     1 1      0.0000
     9 HN       4.5306  -1.2995  -0.1216   H         1 1      0.0000
    10 C        4.9527   0.5334   0.8541   C.3       1 1      0.0000
    11 HC       6.0021   0.2733   0.7324   H         1 1      0.0000
    12 HB       4.8086   1.5423   0.4737   H         1 1      0.0000
    13 HA       4.7259   0.5364   1.9182   H         1 1      0.0000
    14 H12B     1.5560   1.3882  -0.7941   H         1 1      0.0000
    15 O1       1.1269   2.0807   1.9929   O.3       1 1      0.0000
    16 H11      1.5806   0.0688   1.9087   H         1 1      0.0000
    17 OH1      0.5289   1.9662   2.7723   H         1 1      0.0000
    18 C10     -0.1946   0.4562   0.7758   C.ar      1 1      0.0000
    19 C9      -0.8878   1.2458  -0.1316   C.ar      1 1      0.0000
    20 C5      -0.7855  -0.7150   1.2303   C.ar      1 1      0.0000
    21 C8      -2.1438   0.8797  -0.5763   C.ar      1 1      0.0000
    22 H9      -0.4373   2.1629  -0.4965   H         1 1      0.0000
    23 C6      -2.0409  -1.0922   0.7934   C.ar      1 1      0.0000
    24 H5      -0.2543  -1.3426   1.9383   H         1 1      0.0000
    25 C7      -2.7210  -0.2923  -0.1119   C.ar      1 1      0.0000
    26 H8      -2.6755   1.5059  -1.2851   H         1 1      0.0000
    27 H6      -2.4920  -2.0097   1.1568   H         1 1      0.0000
    28 NO      -3.9333  -0.6509  -0.5372   N.pl3     1 1      0.0000
    29 ON2     -4.6178  -1.4537   0.1461   O.2       1 1      0.0000
    30 ON1     -4.3760  -0.1815  -1.6159   O.2       1 1      0.0000
    31 C15      2.0510  -0.7754  -2.5804   C.3       1 1      0.0000
    32 H15A     3.0368  -0.6271  -3.0162   H         1 1      0.0000
    33 H15C     1.5303  -1.5283  -3.1683   H         1 1      0.0000
    34 H15B     1.5001   0.1593  -2.6622   H         1 1      0.0000
@<TRIPOS>BOND
     1     1     2    1
     2     1    15    1
     3     1    16    1
     4     1    18    1
     5     2     3    1
     6     2     4    1
     7     2    14    1
     8     4     5    1
     9     4     8    2
    10     5     6    1
    11     5     7    1
    12     5    31    1
    13     8     9    1
    14     8    10    1
    15    10    11    1
    16    10    12    1
    17    10    13    1
    18    15    17    1
    19    18    19   ar
    20    18    20   ar
    21    19    21   ar
    22    19    22    1
    23    20    23   ar
    24    20    24    1
    25    21    25   ar
    26    21    26    1
    27    23    25   ar
    28    23    27    1
    29    25    28   un
    30    28    29   un
    31    28    30   un
    32    31    32    1
    33    31    33    1
    34    31    34    1
@<TRIPOS>SUBSTRUCTURE
     1 1           1 GROUP             0 ****  ****    0  
@<TRIPOS>MOLECULE
Molecule Name_00001_00001_00083
    34    34     1     0     0
SMALL
NO_CHARGES
****
Generated from the CSD

@<TRIPOS>ATOM
     1 C11      1.3805  -0.3173   1.5871   C.3       1 1      0.0000
     2 C12      2.3843   0.5055   0.7854   C.3       1 1      0.0000
     3 H12A     3.3665   0.4440   1.2696   H         1 1      0.0000
     4 C13      2.5077   0.0497  -0.6370   C.2       1 1      0.0000
     5 C14      2.7978  -1.4006  -0.8784   C.3       1 1      0.0000
     6 H14B     2.6306  -1.6290  -1.9383   H         1 1      0.0000
     7 H14A     2.0991  -2.0097  -0.2917   H         1 1      0.0000
     8 N        2.3914   0.8949  -1.6413   N.pl3     1 1      0.0000
     9 HN       2.5111   0.5098  -2.5781   H         1 1      0.0000
    10 C        1.9798   2.2885  -1.5567   C.3       1 1      0.0000
    11 HC       1.5525   2.6215  -2.5003   H         1 1      0.0000
    12 HB       1.2306   2.4254  -0.7800   H         1 1      0.0000
    13 HA       2.8290   2.9280  -1.3254   H         1 1      0.0000
    14 H12B     2.0734   1.5575   0.7965   H         1 1      0.0000
    15 O1       1.3895   0.1477   2.9342   O.3       1 1      0.0000
    16 H11      1.6915  -1.3734   1.5720   H         1 1      0.0000
    17 OH1      0.7560  -0.3892   3.4715   H         1 1      0.0000
    18 C10     -0.0057  -0.2068   0.9864   C.ar      1 1      0.0000
    19 C9      -0.7097  -1.3454   0.6182   C.ar      1 1      0.0000
    20 C5      -0.5982   1.0348   0.7990   C.ar      1 1      0.0000
    21 C8      -1.9758  -1.2514   0.0727   C.ar      1 1      0.0000
    22 H9      -0.2595  -2.3222   0.7606   H         1 1      0.0000
    23 C6      -1.8636   1.1422   0.2545   C.ar      1 1      0.0000
    24 H5      -0.0602   1.9329   1.0838   H         1 1      0.0000
    25 C7      -2.5532  -0.0042  -0.1094   C.ar      1 1      0.0000
    26 H8      -2.5151  -2.1489  -0.2116   H         1 1      0.0000
    27 H6      -2.3153   2.1185   0.1126   H         1 1      0.0000
    28 NO      -3.7749   0.0929  -0.6358   N.pl3     1 1      0.0000
    29 ON2     -4.1374   1.1731  -1.1665   O.2       1 1      0.0000
    30 ON1     -4.5485  -0.8969  -0.5944   O.2       1 1      0.0000
    31 C15      4.2239  -1.7765  -0.5056   C.3       1 1      0.0000
    32 H15A     4.4115  -1.5805   0.5480   H         1 1      0.0000
    33 H15C     4.4054  -2.8330  -0.6914   H         1 1      0.0000
    34 H15B     4.9395  -1.2018  -1.0899   H         1 1      0.0000
@<TRIPOS>BOND
     1     1     2    1
     2     1    15    1
     3     1    16    1
     4     1    18    1
     5     2     3    1
     6     2     4    1
     7     2    14    1
     8     4     5    1
     9     4     8    2
    10     5     6    1
    11     5     7    1
    12     5    31    1
    13     8     9    1
    14     8    10    1
    15    10    11    1
    16    10    12    1
    17    10    13    1
    18    15    17    1
    19    18    19   ar
    20    18    20   ar
    21    19    21   ar
    22    19    22    1
    23    20    23   ar
    24    20    24    1
    25    21    25   ar
    26    21    26    1
    27    23    25   ar
    28    23    27    1
    29    25    28   un
    30    28    29   un
    31    28    30   un
    32    31    32    1
    33    31    33    1
    34    31    34    1
@<TRIPOS>SUBSTRUCTURE
     1 1           1 GROUP             0 ****  ****    0  
@<TRIPOS>MOLECULE
Molecule Name_00001_00001_00084
    34    34     1     0     0
SMALL
NO_CHARGES
****
Generated from the CSD

@<TRIPOS>ATOM
     1 C11      1.3820  -0.3166   1.5898   C.3       1 1      0.0000
     2 C12      2.3835   0.5059   0.7850   C.3       1 1      0.0000
     3 H12A     3.3670   0.4448   1.2666   H         1 1      0.0000
     4 C13      2.5032   0.0494  -0.6376   C.2       1 1      0.0000
     5 C14      2.7929  -1.4010  -0.8790   C.3       1 1      0.0000
     6 H14B     2.6229  -1.6299  -1.9383   H         1 1      0.0000
     7 H14A     2.0959  -2.0099  -0.2901   H         1 1      0.0000
     8 N        2.3841   0.8941  -1.6419   N.pl3     1 1      0.0000
     9 HN       2.5014   0.5085  -2.5788   H         1 1      0.0000
    10 C        1.9725   2.2877  -1.5570   C.3       1 1      0.0000
    11 HC       1.5425   2.6200  -2.4995   H         1 1      0.0000
    12 HB       1.2254   2.4249  -0.7782   H         1 1      0.0000
    13 HA       2.8223   2.9275  -1.3284   H         1 1      0.0000
    14 H12B     2.0725   1.5579   0.7964   H         1 1      0.0000
    15 O1       1.3944   0.1490   2.9366   O.3       1 1      0.0000
    16 H11      1.6931  -1.3727   1.5744   H         1 1      0.0000
    17 OH1      0.7625  -0.3877   3.4758   H         1 1      0.0000
    18 C10     -0.0059  -0.2066   0.9927   C.ar      1 1      0.0000
    19 C9      -0.5968   1.0350   0.8010   C.ar      1 1      0.0000
    20 C5      -0.7084  -1.3452   0.6217   C.ar      1 1      0.0000
    21 C8      -1.8611   1.1423   0.2539   C.ar      1 1      0.0000
    22 H9      -0.0585   1.9333   1.0848   H         1 1      0.0000
    23 C6      -1.9733  -1.2515   0.0736   C.ar      1 1      0.0000
    24 H5      -0.2580  -2.3220   0.7642   H         1 1      0.0000
    25 C7      -2.5503  -0.0043  -0.1102   C.ar      1 1      0.0000
    26 H8      -2.3121   2.1185   0.1099   H         1 1      0.0000
    27 H6      -2.5121  -2.1490  -0.2115   H         1 1      0.0000
    28 NO      -3.7712   0.0928  -0.6385   N.pl3     1 1      0.0000
    29 ON2     -4.5450  -0.8969  -0.5977   O.2       1 1      0.0000
    30 ON1     -4.1326   1.1727  -1.1705   O.2       1 1      0.0000
    31 C15      4.2200  -1.7764  -0.5097   C.3       1 1      0.0000
    32 H15A     4.4104  -1.5799   0.5433   H         1 1      0.0000
    33 H15C     4.4012  -2.8330  -0.6955   H         1 1      0.0000
    34 H15B     4.9340  -1.2019  -1.0962   H         1 1      0.0000
@<TRIPOS>BOND
     1     1     2    1
     2     1    15    1
     3     1    16    1
     4     1    18    1
     5     2     3    1
     6     2     4    1
     7     2    14    1
     8     4     5    1
     9     4     8    2
    10     5     6    1
    11     5     7    1
    12     5    31    1
    13     8     9    1
    14     8    10    1
    15    10    11    1
    16    10    12    1
    17    10    13    1
    18    15    17    1
    19    18    19   ar
    20    18    20   ar
    21    19    21   ar
    22    19    22    1
    23    20    23   ar
    24    20    24    1
    25    21    25   ar
    26    21    26    1
    27    23    25   ar
    28    23    27    1
    29    25    28   un
    30    28    29   un
    31    28    30   un
    32    31    32    1
    33    31    33    1
    34    31    34    1
@<TRIPOS>SUBSTRUCTURE
     1 1           1 GROUP             0 ****  ****    0  
@<TRIPOS>MOLECULE
Molecule Name_00001_00001_00085
    34    34     1     0     0
SMALL
NO_CHARGES
****
Generated from the CSD

@<TRIPOS>ATOM
     1 C11      1.1682   0.4706  -0.3451   C.3       1 1      0.0000
     2 C12      1.9103  -0.6310   0.4053   C.3       1 1      0.0000
     3 H12A     1.7105  -1.5935  -0.0810   H         1 1      0.0000
     4 C13      3.3910  -0.4046   0.4582   C.2       1 1      0.0000
     5 C14      4.2634  -1.3306  -0.3336   C.3       1 1      0.0000
     6 H14B     3.9492  -2.3654  -0.1497   H         1 1      0.0000
     7 H14A     5.3001  -1.2306   0.0108   H         1 1      0.0000
     8 N        3.9126   0.5567   1.1933   N.pl3     1 1      0.0000
     9 HN       4.9298   0.6303   1.1932   H         1 1      0.0000
    10 C        3.1831   1.6019   1.8962   C.3       1 1      0.0000
    11 HC       3.1075   2.4974   1.2828   H         1 1      0.0000
    12 HB       2.1750   1.2742   2.1409   H         1 1      0.0000
    13 HA       3.6876   1.8679   2.8227   H         1 1      0.0000
    14 H12B     1.5222  -0.6890   1.4297   H         1 1      0.0000
    15 O1       1.5425   0.4117  -1.7190   O.3       1 1      0.0000
    16 H11      1.4688   1.4471   0.0651   H         1 1      0.0000
    17 OH1      1.0828   1.1326  -2.2161   H         1 1      0.0000
    18 C10     -0.3300   0.3130  -0.1859   C.ar      1 1      0.0000
    19 C9      -1.2007   1.2513  -0.7236   C.ar      1 1      0.0000
    20 C5      -0.8581  -0.7752   0.4956   C.ar      1 1      0.0000
    21 C8      -2.5684   1.1116  -0.5846   C.ar      1 1      0.0000
    22 H9      -0.8019   2.1058  -1.2602   H         1 1      0.0000
    23 C6      -2.2238  -0.9263   0.6415   C.ar      1 1      0.0000
    24 H5      -0.1893  -1.5170   0.9194   H         1 1      0.0000
    25 C7      -3.0802   0.0200   0.0999   C.ar      1 1      0.0000
    26 H8      -3.2382   1.8523  -1.0089   H         1 1      0.0000
    27 H6      -2.6239  -1.7809   1.1769   H         1 1      0.0000
    28 NO      -4.3995  -0.1201   0.2377   N.pl3     1 1      0.0000
    29 ON2     -4.8533  -0.8433   1.1602   O.2       1 1      0.0000
    30 ON1     -5.1724   0.4728  -0.5566   O.2       1 1      0.0000
    31 C15      4.2032  -1.0484  -1.8272   C.3       1 1      0.0000
    32 H15A     3.8948  -0.0218  -2.0136   H         1 1      0.0000
    33 H15C     5.1774  -1.1986  -2.2877   H         1 1      0.0000
    34 H15B     3.4915  -1.7102  -2.3164   H         1 1      0.0000
@<TRIPOS>BOND
     1     1     2    1
     2     1    15    1
     3     1    16    1
     4     1    18    1
     5     2     3    1
     6     2     4    1
     7     2    14    1
     8     4     5    1
     9     4     8    2
    10     5     6    1
    11     5     7    1
    12     5    31    1
    13     8     9    1
    14     8    10    1
    15    10    11    1
    16    10    12    1
    17    10    13    1
    18    15    17    1
    19    18    19   ar
    20    18    20   ar
    21    19    21   ar
    22    19    22    1
    23    20    23   ar
    24    20    24    1
    25    21    25   ar
    26    21    26    1
    27    23    25   ar
    28    23    27    1
    29    25    28   un
    30    28    29   un
    31    28    30   un
    32    31    32    1
    33    31    33    1
    34    31    34    1
@<TRIPOS>SUBSTRUCTURE
     1 1           1 GROUP             0 ****  ****    0  
@<TRIPOS>MOLECULE
Molecule Name_00001_00001_00086
    34    34     1     0     0
SMALL
NO_CHARGES
****
Generated from the CSD

@<TRIPOS>ATOM
     1 C11      1.1681   0.4688  -0.3478   C.3       1 1      0.0000
     2 C12      1.9100  -0.6317   0.4045   C.3       1 1      0.0000
     3 H12A     1.7118  -1.5947  -0.0816   H         1 1      0.0000
     4 C13      3.3903  -0.4040   0.4596   C.2       1 1      0.0000
     5 C14      4.2648  -1.3297  -0.3303   C.3       1 1      0.0000
     6 H14B     3.9512  -2.3647  -0.1465   H         1 1      0.0000
     7 H14A     5.3009  -1.2287   0.0158   H         1 1      0.0000
     8 N        3.9100   0.5580   1.1950   N.pl3     1 1      0.0000
     9 HN       4.9271   0.6325   1.1965   H         1 1      0.0000
    10 C        3.1784   1.6030   1.8962   C.3       1 1      0.0000
    11 HC       3.1048   2.4988   1.2830   H         1 1      0.0000
    12 HB       2.1696   1.2754   2.1377   H         1 1      0.0000
    13 HA       3.6801   1.8686   2.8244   H         1 1      0.0000
    14 H12B     1.5202  -0.6895   1.4282   H         1 1      0.0000
    15 O1       1.5457   0.4103  -1.7208   O.3       1 1      0.0000
    16 H11      1.4665   1.4457   0.0630   H         1 1      0.0000
    17 OH1      1.0862   1.1305  -2.2190   H         1 1      0.0000
    18 C10     -0.3302   0.3094  -0.1920   C.ar      1 1      0.0000
    19 C9      -0.8583  -0.7768   0.4926   C.ar      1 1      0.0000
    20 C5      -1.2007   1.2497  -0.7265   C.ar      1 1      0.0000
    21 C8      -2.2239  -0.9263   0.6410   C.ar      1 1      0.0000
    22 H9      -0.1896  -1.5185   0.9170   H         1 1      0.0000
    23 C6      -2.5683   1.1117  -0.5850   C.ar      1 1      0.0000
    24 H5      -0.8017   2.1045  -1.2625   H         1 1      0.0000
    25 C7      -3.0802   0.0206   0.1003   C.ar      1 1      0.0000
    26 H8      -2.6240  -1.7801   1.1778   H         1 1      0.0000
    27 H6      -3.2379   1.8532  -1.0080   H         1 1      0.0000
    28 NO      -4.3994  -0.1184   0.2399   N.pl3     1 1      0.0000
    29 ON2     -5.1729   0.4751  -0.5535   O.2       1 1      0.0000
    30 ON1     -4.8526  -0.8410   1.1631   O.2       1 1      0.0000
    31 C15      4.2068  -1.0483  -1.8242   C.3       1 1      0.0000
    32 H15A     3.9071  -0.0193  -2.0114   H         1 1      0.0000
    33 H15C     5.1798  -1.2070  -2.2846   H         1 1      0.0000
    34 H15B     3.4896  -1.7045  -2.3127   H         1 1      0.0000
@<TRIPOS>BOND
     1     1     2    1
     2     1    15    1
     3     1    16    1
     4     1    18    1
     5     2     3    1
     6     2     4    1
     7     2    14    1
     8     4     5    1
     9     4     8    2
    10     5     6    1
    11     5     7    1
    12     5    31    1
    13     8     9    1
    14     8    10    1
    15    10    11    1
    16    10    12    1
    17    10    13    1
    18    15    17    1
    19    18    19   ar
    20    18    20   ar
    21    19    21   ar
    22    19    22    1
    23    20    23   ar
    24    20    24    1
    25    21    25   ar
    26    21    26    1
    27    23    25   ar
    28    23    27    1
    29    25    28   un
    30    28    29   un
    31    28    30   un
    32    31    32    1
    33    31    33    1
    34    31    34    1
@<TRIPOS>SUBSTRUCTURE
     1 1           1 GROUP             0 ****  ****    0  
@<TRIPOS>MOLECULE
Molecule Name_00001_00001_00087
    34    34     1     0     0
SMALL
NO_CHARGES
****
Generated from the CSD

@<TRIPOS>ATOM
     1 C11      1.1139   0.0239   0.8379   C.3       1 1      0.0000
     2 C12      1.9112  -0.2293  -0.4378   C.3       1 1      0.0000
     3 H12A     1.5761   0.4688  -1.2146   H         1 1      0.0000
     4 C13      3.3891  -0.0746  -0.2419   C.2       1 1      0.0000
     5 C14      4.1347  -1.2296   0.3546   C.3       1 1      0.0000
     6 H14B     3.5895  -1.5936   1.2341   H         1 1      0.0000
     7 H14A     5.1203  -0.8857   0.6919   H         1 1      0.0000
     8 N        4.0100   1.0439  -0.5576   N.pl3     1 1      0.0000
     9 HN       5.0124   1.0773  -0.3725   H         1 1      0.0000
    10 C        3.4388   2.1819  -1.2629   C.3       1 1      0.0000
    11 HC       4.2186   2.7636  -1.7500   H         1 1      0.0000
    12 HB       2.7366   1.8529  -2.0259   H         1 1      0.0000
    13 HA       2.9090   2.8362  -0.5738   H         1 1      0.0000
    14 H12B     1.7036  -1.2463  -0.7927   H         1 1      0.0000
    15 O1       1.5035   1.2871   1.3703   O.3       1 1      0.0000
    16 H11      1.3542  -0.7618   1.5709   H         1 1      0.0000
    17 OH1      1.1791   1.3656   2.3013   H         1 1      0.0000
    18 C10     -0.3742  -0.0082   0.5562   C.ar      1 1      0.0000
    19 C9      -1.2411   0.8356   1.2372   C.ar      1 1      0.0000
    20 C5      -0.8957  -0.8781  -0.3919   C.ar      1 1      0.0000
    21 C8      -2.5991   0.8134   0.9825   C.ar      1 1      0.0000
    22 H9      -0.8471   1.5217   1.9796   H         1 1      0.0000
    23 C6      -2.2517  -0.9100  -0.6558   C.ar      1 1      0.0000
    24 H5      -0.2295  -1.5420  -0.9329   H         1 1      0.0000
    25 C7      -3.1046  -0.0620   0.0337   C.ar      1 1      0.0000
    26 H8      -3.2661   1.4775   1.5222   H         1 1      0.0000
    27 H6      -2.6468  -1.5950  -1.3988   H         1 1      0.0000
    28 NO      -4.4145  -0.0883  -0.2163   N.pl3     1 1      0.0000
    29 ON2     -4.9243  -1.1074  -0.7468   O.2       1 1      0.0000
    30 ON1     -5.1228   0.9065   0.0816   O.2       1 1      0.0000
    31 C15      4.3146  -2.3746  -0.6306   C.3       1 1      0.0000
    32 H15A     4.8727  -2.0468  -1.5052   H         1 1      0.0000
    33 H15C     4.8580  -3.1974  -0.1707   H         1 1      0.0000
    34 H15B     3.3501  -2.7505  -0.9654   H         1 1      0.0000
@<TRIPOS>BOND
     1     1     2    1
     2     1    15    1
     3     1    16    1
     4     1    18    1
     5     2     3    1
     6     2     4    1
     7     2    14    1
     8     4     5    1
     9     4     8    2
    10     5     6    1
    11     5     7    1
    12     5    31    1
    13     8     9    1
    14     8    10    1
    15    10    11    1
    16    10    12    1
    17    10    13    1
    18    15    17    1
    19    18    19   ar
    20    18    20   ar
    21    19    21   ar
    22    19    22    1
    23    20    23   ar
    24    20    24    1
    25    21    25   ar
    26    21    26    1
    27    23    25   ar
    28    23    27    1
    29    25    28   un
    30    28    29   un
    31    28    30   un
    32    31    32    1
    33    31    33    1
    34    31    34    1
@<TRIPOS>SUBSTRUCTURE
     1 1           1 GROUP             0 ****  ****    0  
@<TRIPOS>MOLECULE
Molecule Name_00001_00001_00088
    34    34     1     0     0
SMALL
NO_CHARGES
****
Generated from the CSD

@<TRIPOS>ATOM
     1 C11      1.1841  -0.1510   0.5915   C.3       1 1      0.0000
     2 C12      1.8851  -0.2268  -0.7614   C.3       1 1      0.0000
     3 H12A     1.5145   0.5818  -1.4031   H         1 1      0.0000
     4 C13      3.3763  -0.1237  -0.6518   C.2       1 1      0.0000
     5 C14      4.1328  -1.3646  -0.2864   C.3       1 1      0.0000
     6 H14B     5.2016  -1.2018  -0.4724   H         1 1      0.0000
     7 H14A     3.8040  -2.1892  -0.9308   H         1 1      0.0000
     8 N        4.0012   1.0204  -0.8439   N.pl3     1 1      0.0000
     9 HN       5.0145   1.0119  -0.7285   H         1 1      0.0000
    10 C        3.4107   2.2582  -1.3316   C.3       1 1      0.0000
    11 HC       4.1701   2.8974  -1.7772   H         1 1      0.0000
    12 HB       2.6542   2.0561  -2.0868   H         1 1      0.0000
    13 HA       2.9403   2.8075  -0.5188   H         1 1      0.0000
    14 H12B     1.6284  -1.1781  -1.2437   H         1 1      0.0000
    15 O1       1.6420   1.0142   1.2723   O.3       1 1      0.0000
    16 H11      1.4536  -1.0394   1.1835   H         1 1      0.0000
    17 OH1      1.3795   0.9630   2.2245   H         1 1      0.0000
    18 C10     -0.3201  -0.1181   0.4155   C.ar      1 1      0.0000
    19 C9      -1.1161   0.6300   1.2725   C.ar      1 1      0.0000
    20 C5      -0.9280  -0.8309  -0.6091   C.ar      1 1      0.0000
    21 C8      -2.4884   0.6667   1.1153   C.ar      1 1      0.0000
    22 H9      -0.6543   1.1933   2.0766   H         1 1      0.0000
    23 C6      -2.2992  -0.8024  -0.7769   C.ar      1 1      0.0000
    24 H5      -0.3180  -1.4184  -1.2874   H         1 1      0.0000
    25 C7      -3.0805  -0.0517   0.0880   C.ar      1 1      0.0000
    26 H8      -3.0993   1.2547   1.7923   H         1 1      0.0000
    27 H6      -2.7621  -1.3645  -1.5813   H         1 1      0.0000
    28 NO      -4.4047  -0.0204  -0.0686   N.pl3     1 1      0.0000
    29 ON2     -4.9760  -0.9425  -0.7037   O.2       1 1      0.0000
    30 ON1     -5.0648   0.9306   0.4210   O.2       1 1      0.0000
    31 C15      3.9336  -1.7575   1.1696   C.3       1 1      0.0000
    32 H15A     2.9909  -2.2845   1.3013   H         1 1      0.0000
    33 H15C     4.7365  -2.4100   1.5064   H         1 1      0.0000
    34 H15B     3.9218  -0.8770   1.8086   H         1 1      0.0000
@<TRIPOS>BOND
     1     1     2    1
     2     1    15    1
     3     1    16    1
     4     1    18    1
     5     2     3    1
     6     2     4    1
     7     2    14    1
     8     4     5    1
     9     4     8    2
    10     5     6    1
    11     5     7    1
    12     5    31    1
    13     8     9    1
    14     8    10    1
    15    10    11    1
    16    10    12    1
    17    10    13    1
    18    15    17    1
    19    18    19   ar
    20    18    20   ar
    21    19    21   ar
    22    19    22    1
    23    20    23   ar
    24    20    24    1
    25    21    25   ar
    26    21    26    1
    27    23    25   ar
    28    23    27    1
    29    25    28   un
    30    28    29   un
    31    28    30   un
    32    31    32    1
    33    31    33    1
    34    31    34    1
@<TRIPOS>SUBSTRUCTURE
     1 1           1 GROUP             0 ****  ****    0  
@<TRIPOS>MOLECULE
Molecule Name_00001_00001_00089
    34    34     1     0     0
SMALL
NO_CHARGES
****
Generated from the CSD

@<TRIPOS>ATOM
     1 C11      1.0643  -0.0775  -0.8573   C.3       1 1      0.0000
     2 C12      1.9336   0.3284   0.3288   C.3       1 1      0.0000
     3 H12A     1.6755  -0.2960   1.1928   H         1 1      0.0000
     4 C13      3.4001   0.1980   0.0483   C.2       1 1      0.0000
     5 C14      4.0365  -1.1374   0.2876   C.3       1 1      0.0000
     6 H14B     5.0334  -1.1477  -0.1701   H         1 1      0.0000
     7 H14A     3.4367  -1.9146  -0.2019   H         1 1      0.0000
     8 N        4.1130   1.2245  -0.3694   N.pl3     1 1      0.0000
     9 HN       5.1087   1.0593  -0.5156   H         1 1      0.0000
    10 C        3.6025   2.5278  -0.7690   C.3       1 1      0.0000
    11 HC       4.2495   2.9817  -1.5167   H         1 1      0.0000
    12 HB       2.6050   2.4402  -1.1941   H         1 1      0.0000
    13 HA       3.5494   3.1995   0.0853   H         1 1      0.0000
    14 H12B     1.7128   1.3698   0.5934   H         1 1      0.0000
    15 O1       1.4568  -1.3809  -1.2794   O.3       1 1      0.0000
    16 H11      1.2334   0.6310  -1.6829   H         1 1      0.0000
    17 OH1      1.0092  -1.5983  -2.1341   H         1 1      0.0000
    18 C10     -0.4030  -0.0501  -0.4817   C.ar      1 1      0.0000
    19 C9      -1.2857  -0.9824  -1.0101   C.ar      1 1      0.0000
    20 C5      -0.8891   0.9043   0.4017   C.ar      1 1      0.0000
    21 C8      -2.6246  -0.9648  -0.6689   C.ar      1 1      0.0000
    22 H9      -0.9192  -1.7351  -1.7003   H         1 1      0.0000
    23 C6      -2.2257   0.9326   0.7508   C.ar      1 1      0.0000
    24 H5      -0.2101   1.6379   0.8236   H         1 1      0.0000
    25 C7      -3.0948  -0.0045   0.2136   C.ar      1 1      0.0000
    26 H8      -3.3043  -1.6986  -1.0894   H         1 1      0.0000
    27 H6      -2.5931   1.6841   1.4418   H         1 1      0.0000
    28 NO      -4.3863   0.0179   0.5464   N.pl3     1 1      0.0000
    29 ON2     -4.8918   1.0760   0.9989   O.2       1 1      0.0000
    30 ON1     -5.0816  -1.0194   0.4035   O.2       1 1      0.0000
    31 C15      4.1636  -1.4621   1.7684   C.3       1 1      0.0000
    32 H15A     3.1855  -1.4803   2.2445   H         1 1      0.0000
    33 H15C     4.6284  -2.4354   1.9113   H         1 1      0.0000
    34 H15B     4.7736  -0.7175   2.2755   H         1 1      0.0000
@<TRIPOS>BOND
     1     1     2    1
     2     1    15    1
     3     1    16    1
     4     1    18    1
     5     2     3    1
     6     2     4    1
     7     2    14    1
     8     4     5    1
     9     4     8    2
    10     5     6    1
    11     5     7    1
    12     5    31    1
    13     8     9    1
    14     8    10    1
    15    10    11    1
    16    10    12    1
    17    10    13    1
    18    15    17    1
    19    18    19   ar
    20    18    20   ar
    21    19    21   ar
    22    19    22    1
    23    20    23   ar
    24    20    24    1
    25    21    25   ar
    26    21    26    1
    27    23    25   ar
    28    23    27    1
    29    25    28   un
    30    28    29   un
    31    28    30   un
    32    31    32    1
    33    31    33    1
    34    31    34    1
@<TRIPOS>SUBSTRUCTURE
     1 1           1 GROUP             0 ****  ****    0  
@<TRIPOS>MOLECULE
Molecule Name_00001_00001_00090
    34    34     1     0     0
SMALL
NO_CHARGES
****
Generated from the CSD

@<TRIPOS>ATOM
     1 C11      1.1133   0.0263   0.8350   C.3       1 1      0.0000
     2 C12      1.9125  -0.2270  -0.4395   C.3       1 1      0.0000
     3 H12A     1.5800   0.4724  -1.2162   H         1 1      0.0000
     4 C13      3.3902  -0.0752  -0.2409   C.2       1 1      0.0000
     5 C14      4.1328  -1.2320   0.3559   C.3       1 1      0.0000
     6 H14B     3.5853  -1.5960   1.2341   H         1 1      0.0000
     7 H14A     5.1184  -0.8903   0.6952   H         1 1      0.0000
     8 N        4.0138   1.0426  -0.5544   N.pl3     1 1      0.0000
     9 HN       5.0159   1.0740  -0.3675   H         1 1      0.0000
    10 C        3.4458   2.1823  -1.2596   C.3       1 1      0.0000
    11 HC       4.2275   2.7630  -1.7448   H         1 1      0.0000
    12 HB       2.7444   1.8553  -2.0241   H         1 1      0.0000
    13 HA       2.9159   2.8369  -0.5708   H         1 1      0.0000
    14 H12B     1.7036  -1.2433  -0.7958   H         1 1      0.0000
    15 O1       1.5039   1.2885   1.3692   O.3       1 1      0.0000
    16 H11      1.3511  -0.7603   1.5678   H         1 1      0.0000
    17 OH1      1.1810   1.3653   2.3008   H         1 1      0.0000
    18 C10     -0.3743  -0.0032   0.5507   C.ar      1 1      0.0000
    19 C9      -0.8962  -0.8751  -0.3953   C.ar      1 1      0.0000
    20 C5      -1.2419   0.8371   1.2353   C.ar      1 1      0.0000
    21 C8      -2.2525  -0.9092  -0.6570   C.ar      1 1      0.0000
    22 H9      -0.2299  -1.5387  -0.9366   H         1 1      0.0000
    23 C6      -2.6002   0.8127   0.9828   C.ar      1 1      0.0000
    24 H5      -0.8479   1.5224   1.9786   H         1 1      0.0000
    25 C7      -3.1057  -0.0628   0.0341   C.ar      1 1      0.0000
    26 H8      -2.6477  -1.5948  -1.3993   H         1 1      0.0000
    27 H6      -3.2675   1.4751   1.5242   H         1 1      0.0000
    28 NO      -4.4159  -0.0908  -0.2143   N.pl3     1 1      0.0000
    29 ON2     -5.1253   0.9028   0.0851   O.2       1 1      0.0000
    30 ON1     -4.9249  -1.1103  -0.7448   O.2       1 1      0.0000
    31 C15      4.3124  -2.3764  -0.6302   C.3       1 1      0.0000
    32 H15A     4.8726  -2.0487  -1.5034   H         1 1      0.0000
    33 H15C     4.8534  -3.2006  -0.1701   H         1 1      0.0000
    34 H15B     3.3478  -2.7502  -0.9670   H         1 1      0.0000
@<TRIPOS>BOND
     1     1     2    1
     2     1    15    1
     3     1    16    1
     4     1    18    1
     5     2     3    1
     6     2     4    1
     7     2    14    1
     8     4     5    1
     9     4     8    2
    10     5     6    1
    11     5     7    1
    12     5    31    1
    13     8     9    1
    14     8    10    1
    15    10    11    1
    16    10    12    1
    17    10    13    1
    18    15    17    1
    19    18    19   ar
    20    18    20   ar
    21    19    21   ar
    22    19    22    1
    23    20    23   ar
    24    20    24    1
    25    21    25   ar
    26    21    26    1
    27    23    25   ar
    28    23    27    1
    29    25    28   un
    30    28    29   un
    31    28    30   un
    32    31    32    1
    33    31    33    1
    34    31    34    1
@<TRIPOS>SUBSTRUCTURE
     1 1           1 GROUP             0 ****  ****    0  
@<TRIPOS>MOLECULE
Molecule Name_00001_00001_00091
    34    34     1     0     0
SMALL
NO_CHARGES
****
Generated from the CSD

@<TRIPOS>ATOM
     1 C11      1.1836  -0.1481   0.5890   C.3       1 1      0.0000
     2 C12      1.8864  -0.2240  -0.7629   C.3       1 1      0.0000
     3 H12A     1.5185   0.5861  -1.4043   H         1 1      0.0000
     4 C13      3.3777  -0.1239  -0.6509   C.2       1 1      0.0000
     5 C14      4.1312  -1.3667  -0.2857   C.3       1 1      0.0000
     6 H14B     5.2006  -1.2059  -0.4699   H         1 1      0.0000
     7 H14A     3.8016  -2.1900  -0.9315   H         1 1      0.0000
     8 N        4.0052   1.0191  -0.8408   N.pl3     1 1      0.0000
     9 HN       5.0183   1.0084  -0.7239   H         1 1      0.0000
    10 C        3.4179   2.2586  -1.3281   C.3       1 1      0.0000
    11 HC       4.1792   2.8967  -1.7718   H         1 1      0.0000
    12 HB       2.6620   2.0588  -2.0845   H         1 1      0.0000
    13 HA       2.9474   2.8081  -0.5153   H         1 1      0.0000
    14 H12B     1.6286  -1.1743  -1.2465   H         1 1      0.0000
    15 O1       1.6425   1.0157   1.2716   O.3       1 1      0.0000
    16 H11      1.4506  -1.0374   1.1806   H         1 1      0.0000
    17 OH1      1.3780   0.9644   2.2232   H         1 1      0.0000
    18 C10     -0.3203  -0.1124   0.4108   C.ar      1 1      0.0000
    19 C9      -0.9284  -0.8274  -0.6122   C.ar      1 1      0.0000
    20 C5      -1.1168   0.6316   1.2709   C.ar      1 1      0.0000
    21 C8      -2.2999  -0.8014  -0.7781   C.ar      1 1      0.0000
    22 H9      -0.3183  -1.4144  -1.2907   H         1 1      0.0000
    23 C6      -2.4894   0.6657   1.1157   C.ar      1 1      0.0000
    24 H5      -0.6551   1.1938   2.0759   H         1 1      0.0000
    25 C7      -3.0814  -0.0527   0.0883   C.ar      1 1      0.0000
    26 H8      -2.7628  -1.3641  -1.5821   H         1 1      0.0000
    27 H6      -3.1006   1.2516   1.7942   H         1 1      0.0000
    28 NO      -4.4059  -0.0234  -0.0669   N.pl3     1 1      0.0000
    29 ON2     -5.0670   0.9262   0.4241   O.2       1 1      0.0000
    30 ON1     -4.9763  -0.9458  -0.7023   O.2       1 1      0.0000
    31 C15      3.9290  -1.7609   1.1696   C.3       1 1      0.0000
    32 H15A     2.9852  -2.2864   1.2992   H         1 1      0.0000
    33 H15C     4.7303  -2.4150   1.5069   H         1 1      0.0000
    34 H15B     3.9176  -0.8810   1.8094   H         1 1      0.0000
@<TRIPOS>BOND
     1     1     2    1
     2     1    15    1
     3     1    16    1
     4     1    18    1
     5     2     3    1
     6     2     4    1
     7     2    14    1
     8     4     5    1
     9     4     8    2
    10     5     6    1
    11     5     7    1
    12     5    31    1
    13     8     9    1
    14     8    10    1
    15    10    11    1
    16    10    12    1
    17    10    13    1
    18    15    17    1
    19    18    19   ar
    20    18    20   ar
    21    19    21   ar
    22    19    22    1
    23    20    23   ar
    24    20    24    1
    25    21    25   ar
    26    21    26    1
    27    23    25   ar
    28    23    27    1
    29    25    28   un
    30    28    29   un
    31    28    30   un
    32    31    32    1
    33    31    33    1
    34    31    34    1
@<TRIPOS>SUBSTRUCTURE
     1 1           1 GROUP             0 ****  ****    0  
@<TRIPOS>MOLECULE
Molecule Name_00001_00001_00092
    34    34     1     0     0
SMALL
NO_CHARGES
****
Generated from the CSD

@<TRIPOS>ATOM
     1 C11      1.0640  -0.0820  -0.8539   C.3       1 1      0.0000
     2 C12      1.9350   0.3273   0.3298   C.3       1 1      0.0000
     3 H12A     1.6796  -0.2960   1.1954   H         1 1      0.0000
     4 C13      3.4012   0.1988   0.0466   C.2       1 1      0.0000
     5 C14      4.0402  -1.1352   0.2870   C.3       1 1      0.0000
     6 H14B     5.0362  -1.1446  -0.1727   H         1 1      0.0000
     7 H14A     3.4407  -1.9142  -0.2000   H         1 1      0.0000
     8 N        4.1116   1.2258  -0.3742   N.pl3     1 1      0.0000
     9 HN       5.1073   1.0619  -0.5221   H         1 1      0.0000
    10 C        3.5983   2.5276  -0.7750   C.3       1 1      0.0000
    11 HC       4.2431   2.9812  -1.5248   H         1 1      0.0000
    12 HB       2.6001   2.4377  -1.1980   H         1 1      0.0000
    13 HA       3.5458   3.2006   0.0782   H         1 1      0.0000
    14 H12B     1.7131   1.3689   0.5930   H         1 1      0.0000
    15 O1       1.4576  -1.3856  -1.2743   O.3       1 1      0.0000
    16 H11      1.2306   0.6252  -1.6811   H         1 1      0.0000
    17 OH1      1.0088  -1.6052  -2.1278   H         1 1      0.0000
    18 C10     -0.4026  -0.0559  -0.4756   C.ar      1 1      0.0000
    19 C9      -0.8893   0.9027   0.4029   C.ar      1 1      0.0000
    20 C5      -1.2861  -0.9867  -1.0052   C.ar      1 1      0.0000
    21 C8      -2.2265   0.9338   0.7495   C.ar      1 1      0.0000
    22 H9      -0.2103   1.6373   0.8231   H         1 1      0.0000
    23 C6      -2.6256  -0.9663  -0.6666   C.ar      1 1      0.0000
    24 H5      -0.9198  -1.7405  -1.6943   H         1 1      0.0000
    25 C7      -3.0959  -0.0035   0.2131   C.ar      1 1      0.0000
    26 H8      -2.5942   1.6877   1.4377   H         1 1      0.0000
    27 H6      -3.3057  -1.6998  -1.0869   H         1 1      0.0000
    28 NO      -4.3878   0.0212   0.5441   N.pl3     1 1      0.0000
    29 ON2     -5.0842  -1.0156   0.4025   O.2       1 1      0.0000
    30 ON1     -4.8927   1.0810   0.9935   O.2       1 1      0.0000
    31 C15      4.1707  -1.4571   1.7680   C.3       1 1      0.0000
    32 H15A     3.1936  -1.4761   2.2461   H         1 1      0.0000
    33 H15C     4.6373  -2.4294   1.9116   H         1 1      0.0000
    34 H15B     4.7805  -0.7107   2.2727   H         1 1      0.0000
@<TRIPOS>BOND
     1     1     2    1
     2     1    15    1
     3     1    16    1
     4     1    18    1
     5     2     3    1
     6     2     4    1
     7     2    14    1
     8     4     5    1
     9     4     8    2
    10     5     6    1
    11     5     7    1
    12     5    31    1
    13     8     9    1
    14     8    10    1
    15    10    11    1
    16    10    12    1
    17    10    13    1
    18    15    17    1
    19    18    19   ar
    20    18    20   ar
    21    19    21   ar
    22    19    22    1
    23    20    23   ar
    24    20    24    1
    25    21    25   ar
    26    21    26    1
    27    23    25   ar
    28    23    27    1
    29    25    28   un
    30    28    29   un
    31    28    30   un
    32    31    32    1
    33    31    33    1
    34    31    34    1
@<TRIPOS>SUBSTRUCTURE
     1 1           1 GROUP             0 ****  ****    0  
@<TRIPOS>MOLECULE
Molecule Name_00001_00001_00093
    34    34     1     0     0
SMALL
NO_CHARGES
****
Generated from the CSD

@<TRIPOS>ATOM
     1 C11      1.1574   0.4907   1.4252   C.3       1 1      0.0000
     2 C12      2.0179   1.2042   0.3871   C.3       1 1      0.0000
     3 H12A     2.7205   1.8715   0.9011   H         1 1      0.0000
     4 C13      2.7868   0.2568  -0.4833   C.2       1 1      0.0000
     5 C14      2.0595  -0.3785  -1.6293   C.3       1 1      0.0000
     6 H14B     1.6661   0.4077  -2.2854   H         1 1      0.0000
     7 H14A     1.2057  -0.9481  -1.2421   H         1 1      0.0000
     8 N        4.0494  -0.0297  -0.2382   N.pl3     1 1      0.0000
     9 HN       4.4948  -0.7009  -0.8637   H         1 1      0.0000
    10 C        4.9070   0.6113   0.7479   C.3       1 1      0.0000
    11 HC       5.9550   0.4966   0.4791   H         1 1      0.0000
    12 HB       4.6907   1.6752   0.8172   H         1 1      0.0000
    13 HA       4.7597   0.1705   1.7316   H         1 1      0.0000
    14 H12B     1.3722   1.8252  -0.2460   H         1 1      0.0000
    15 O1       1.0883   1.3064   2.5918   O.3       1 1      0.0000
    16 H11      1.6339  -0.4667   1.6869   H         1 1      0.0000
    17 OH1      0.5480   0.8481   3.2818   H         1 1      0.0000
    18 C10     -0.2272   0.2143   0.8763   C.ar      1 1      0.0000
    19 C9      -1.1763  -0.4413   1.6489   C.ar      1 1      0.0000
    20 C5      -0.5725   0.6169  -0.4068   C.ar      1 1      0.0000
    21 C8      -2.4419  -0.6936   1.1551   C.ar      1 1      0.0000
    22 H9      -0.9206  -0.7601   2.6540   H         1 1      0.0000
    23 C6      -1.8347   0.3706  -0.9122   C.ar      1 1      0.0000
    24 H5       0.1588   1.1318  -1.0211   H         1 1      0.0000
    25 C7      -2.7709  -0.2864  -0.1286   C.ar      1 1      0.0000
    26 H8      -3.1744  -1.2075   1.7689   H         1 1      0.0000
    27 H6      -2.0919   0.6898  -1.9168   H         1 1      0.0000
    28 NO      -3.9910  -0.5274  -0.6110   N.pl3     1 1      0.0000
    29 ON2     -4.1757  -0.5364  -1.8542   O.2       1 1      0.0000
    30 ON1     -4.9407  -0.7423   0.1838   O.2       1 1      0.0000
    31 C15      2.9525  -1.3053  -2.4404   C.3       1 1      0.0000
    32 H15A     3.3402  -2.1092  -1.8183   H         1 1      0.0000
    33 H15C     2.3987  -1.7510  -3.2640   H         1 1      0.0000
    34 H15B     3.7977  -0.7604  -2.8557   H         1 1      0.0000
@<TRIPOS>BOND
     1     1     2    1
     2     1    15    1
     3     1    16    1
     4     1    18    1
     5     2     3    1
     6     2     4    1
     7     2    14    1
     8     4     5    1
     9     4     8    2
    10     5     6    1
    11     5     7    1
    12     5    31    1
    13     8     9    1
    14     8    10    1
    15    10    11    1
    16    10    12    1
    17    10    13    1
    18    15    17    1
    19    18    19   ar
    20    18    20   ar
    21    19    21   ar
    22    19    22    1
    23    20    23   ar
    24    20    24    1
    25    21    25   ar
    26    21    26    1
    27    23    25   ar
    28    23    27    1
    29    25    28   un
    30    28    29   un
    31    28    30   un
    32    31    32    1
    33    31    33    1
    34    31    34    1
@<TRIPOS>SUBSTRUCTURE
     1 1           1 GROUP             0 ****  ****    0  
@<TRIPOS>MOLECULE
Molecule Name_00001_00001_00094
    34    34     1     0     0
SMALL
NO_CHARGES
****
Generated from the CSD

@<TRIPOS>ATOM
     1 C11      1.1575   0.4911   1.4260   C.3       1 1      0.0000
     2 C12      2.0183   1.2043   0.3880   C.3       1 1      0.0000
     3 H12A     2.7218   1.8705   0.9021   H         1 1      0.0000
     4 C13      2.7857   0.2567  -0.4834   C.2       1 1      0.0000
     5 C14      2.0572  -0.3773  -1.6293   C.3       1 1      0.0000
     6 H14B     1.6639   0.4097  -2.2846   H         1 1      0.0000
     7 H14A     1.2032  -0.9465  -1.2419   H         1 1      0.0000
     8 N        4.0482  -0.0312  -0.2392   N.pl3     1 1      0.0000
     9 HN       4.4926  -0.7025  -0.8654   H         1 1      0.0000
    10 C        4.9069   0.6085   0.7468   C.3       1 1      0.0000
    11 HC       5.9547   0.4930   0.4772   H         1 1      0.0000
    12 HB       4.6917   1.6725   0.8169   H         1 1      0.0000
    13 HA       4.7599   0.1671   1.7303   H         1 1      0.0000
    14 H12B     1.3730   1.8264  -0.2445   H         1 1      0.0000
    15 O1       1.0921   1.3049   2.5941   O.3       1 1      0.0000
    16 H11      1.6320  -0.4680   1.6853   H         1 1      0.0000
    17 OH1      0.5516   0.8467   3.2841   H         1 1      0.0000
    18 C10     -0.2286   0.2191   0.8786   C.ar      1 1      0.0000
    19 C9      -0.5727   0.6191  -0.4056   C.ar      1 1      0.0000
    20 C5      -1.1766  -0.4399   1.6496   C.ar      1 1      0.0000
    21 C8      -1.8342   0.3711  -0.9120   C.ar      1 1      0.0000
    22 H9       0.1589   1.1335  -1.0199   H         1 1      0.0000
    23 C6      -2.4415  -0.6939   1.1549   C.ar      1 1      0.0000
    24 H5      -0.9208  -0.7597   2.6543   H         1 1      0.0000
    25 C7      -2.7702  -0.2868  -0.1290   C.ar      1 1      0.0000
    26 H8      -2.0908   0.6895  -1.9169   H         1 1      0.0000
    27 H6      -3.1736  -1.2092   1.7679   H         1 1      0.0000
    28 NO      -3.9898  -0.5288  -0.6121   N.pl3     1 1      0.0000
    29 ON2     -4.9398  -0.7447   0.1821   O.2       1 1      0.0000
    30 ON1     -4.1737  -0.5379  -1.8555   O.2       1 1      0.0000
    31 C15      2.9489  -1.3041  -2.4417   C.3       1 1      0.0000
    32 H15A     3.3365  -2.1088  -1.8205   H         1 1      0.0000
    33 H15C     2.3942  -1.7488  -3.2653   H         1 1      0.0000
    34 H15B     3.7942  -0.7595  -2.8573   H         1 1      0.0000
@<TRIPOS>BOND
     1     1     2    1
     2     1    15    1
     3     1    16    1
     4     1    18    1
     5     2     3    1
     6     2     4    1
     7     2    14    1
     8     4     5    1
     9     4     8    2
    10     5     6    1
    11     5     7    1
    12     5    31    1
    13     8     9    1
    14     8    10    1
    15    10    11    1
    16    10    12    1
    17    10    13    1
    18    15    17    1
    19    18    19   ar
    20    18    20   ar
    21    19    21   ar
    22    19    22    1
    23    20    23   ar
    24    20    24    1
    25    21    25   ar
    26    21    26    1
    27    23    25   ar
    28    23    27    1
    29    25    28   un
    30    28    29   un
    31    28    30   un
    32    31    32    1
    33    31    33    1
    34    31    34    1
@<TRIPOS>SUBSTRUCTURE
     1 1           1 GROUP             0 ****  ****    0  
@<TRIPOS>MOLECULE
Molecule Name_00001_00001_00095
    34    34     1     0     0
SMALL
NO_CHARGES
****
Generated from the CSD

@<TRIPOS>ATOM
     1 C11      1.2027  -0.5188   0.5381   C.3       1 1      0.0000
     2 C12      1.9549   0.7608   0.1858   C.3       1 1      0.0000
     3 H12A     1.9674   1.4219   1.0609   H         1 1      0.0000
     4 C13      3.3636   0.5054  -0.2579   C.2       1 1      0.0000
     5 C14      4.2423  -0.2996   0.6507   C.3       1 1      0.0000
     6 H14B     4.0731   0.0167   1.6874   H         1 1      0.0000
     7 H14A     5.2926  -0.0973   0.4074   H         1 1      0.0000
     8 N        3.8244   0.9908  -1.3929   N.pl3     1 1      0.0000
     9 HN       4.8003   0.7912  -1.6119   H         1 1      0.0000
    10 C        3.0497   1.6663  -2.4237   C.3       1 1      0.0000
    11 HC       3.6188   1.7371  -3.3483   H         1 1      0.0000
    12 HB       2.1295   1.1258  -2.6343   H         1 1      0.0000
    13 HA       2.7869   2.6744  -2.1100   H         1 1      0.0000
    14 H12B     1.4177   1.2814  -0.6165   H         1 1      0.0000
    15 O1       1.5101  -0.8666   1.8855   O.3       1 1      0.0000
    16 H11      1.5439  -1.3279  -0.1261   H         1 1      0.0000
    17 OH1      1.0435  -1.7056   2.1231   H         1 1      0.0000
    18 C10     -0.2894  -0.3319   0.3552   C.ar      1 1      0.0000
    19 C9      -1.0136  -1.1858  -0.4658   C.ar      1 1      0.0000
    20 C5      -0.9592   0.6931   1.0097   C.ar      1 1      0.0000
    21 C8      -2.3753  -1.0226  -0.6342   C.ar      1 1      0.0000
    22 H9      -0.5033  -1.9922  -0.9821   H         1 1      0.0000
    23 C6      -2.3206   0.8669   0.8496   C.ar      1 1      0.0000
    24 H5      -0.4060   1.3668   1.6557   H         1 1      0.0000
    25 C7      -3.0295   0.0066   0.0252   C.ar      1 1      0.0000
    26 H8      -2.9297  -1.6964  -1.2792   H         1 1      0.0000
    27 H6      -2.8321   1.6723   1.3662   H         1 1      0.0000
    28 NO      -4.3438   0.1694  -0.1337   N.pl3     1 1      0.0000
    29 ON2     -4.8646   1.2864   0.1132   O.2       1 1      0.0000
    30 ON1     -5.0450  -0.7962  -0.5284   O.2       1 1      0.0000
    31 C15      3.9810  -1.7938   0.5357   C.3       1 1      0.0000
    32 H15A     3.3735  -2.0129  -0.3399   H         1 1      0.0000
    33 H15C     4.9159  -2.3430   0.4455   H         1 1      0.0000
    34 H15B     3.4550  -2.1621   1.4140   H         1 1      0.0000
@<TRIPOS>BOND
     1     1     2    1
     2     1    15    1
     3     1    16    1
     4     1    18    1
     5     2     3    1
     6     2     4    1
     7     2    14    1
     8     4     5    1
     9     4     8    2
    10     5     6    1
    11     5     7    1
    12     5    31    1
    13     8     9    1
    14     8    10    1
    15    10    11    1
    16    10    12    1
    17    10    13    1
    18    15    17    1
    19    18    19   ar
    20    18    20   ar
    21    19    21   ar
    22    19    22    1
    23    20    23   ar
    24    20    24    1
    25    21    25   ar
    26    21    26    1
    27    23    25   ar
    28    23    27    1
    29    25    28   un
    30    28    29   un
    31    28    30   un
    32    31    32    1
    33    31    33    1
    34    31    34    1
@<TRIPOS>SUBSTRUCTURE
     1 1           1 GROUP             0 ****  ****    0  
@<TRIPOS>MOLECULE
Molecule Name_00001_00001_00096
    34    34     1     0     0
SMALL
NO_CHARGES
****
Generated from the CSD

@<TRIPOS>ATOM
     1 C11      1.2033  -0.5206   0.5416   C.3       1 1      0.0000
     2 C12      1.9530   0.7597   0.1865   C.3       1 1      0.0000
     3 H12A     1.9662   1.4218   1.0608   H         1 1      0.0000
     4 C13      3.3611   0.5058  -0.2596   C.2       1 1      0.0000
     5 C14      4.2427  -0.2969   0.6481   C.3       1 1      0.0000
     6 H14B     4.0751   0.0203   1.6848   H         1 1      0.0000
     7 H14A     5.2924  -0.0934   0.4026   H         1 1      0.0000
     8 N        3.8191   0.9907  -1.3961   N.pl3     1 1      0.0000
     9 HN       4.7949   0.7922  -1.6167   H         1 1      0.0000
    10 C        3.0415   1.6638  -2.4261   C.3       1 1      0.0000
    11 HC       3.6087   1.7344  -3.3519   H         1 1      0.0000
    12 HB       2.1216   1.1218  -2.6343   H         1 1      0.0000
    13 HA       2.7778   2.6719  -2.1131   H         1 1      0.0000
    14 H12B     1.4135   1.2786  -0.6154   H         1 1      0.0000
    15 O1       1.5138  -0.8665   1.8888   O.3       1 1      0.0000
    16 H11      1.5444  -1.3299  -0.1223   H         1 1      0.0000
    17 OH1      1.0488  -1.7059   2.1282   H         1 1      0.0000
    18 C10     -0.2895  -0.3360   0.3614   C.ar      1 1      0.0000
    19 C9      -0.9585   0.6921   1.0117   C.ar      1 1      0.0000
    20 C5      -1.0130  -1.1885  -0.4616   C.ar      1 1      0.0000
    21 C8      -2.3193   0.8677   0.8488   C.ar      1 1      0.0000
    22 H9      -0.4052   1.3668   1.6565   H         1 1      0.0000
    23 C6      -2.3742  -1.0235  -0.6328   C.ar      1 1      0.0000
    24 H5      -0.5027  -1.9952  -0.9774   H         1 1      0.0000
    25 C7      -3.0281   0.0072   0.0246   C.ar      1 1      0.0000
    26 H8      -2.8305   1.6748   1.3632   H         1 1      0.0000
    27 H6      -2.9284  -1.6970  -1.2782   H         1 1      0.0000
    28 NO      -4.3420   0.1714  -0.1363   N.pl3     1 1      0.0000
    29 ON2     -5.0438  -0.7938  -0.5307   O.2       1 1      0.0000
    30 ON1     -4.8618   1.2894   0.1086   O.2       1 1      0.0000
    31 C15      3.9834  -1.7916   0.5353   C.3       1 1      0.0000
    32 H15A     3.3746  -2.0125  -0.3389   H         1 1      0.0000
    33 H15C     4.9190  -2.3396   0.4439   H         1 1      0.0000
    34 H15B     3.4596  -2.1597   1.4150   H         1 1      0.0000
@<TRIPOS>BOND
     1     1     2    1
     2     1    15    1
     3     1    16    1
     4     1    18    1
     5     2     3    1
     6     2     4    1
     7     2    14    1
     8     4     5    1
     9     4     8    2
    10     5     6    1
    11     5     7    1
    12     5    31    1
    13     8     9    1
    14     8    10    1
    15    10    11    1
    16    10    12    1
    17    10    13    1
    18    15    17    1
    19    18    19   ar
    20    18    20   ar
    21    19    21   ar
    22    19    22    1
    23    20    23   ar
    24    20    24    1
    25    21    25   ar
    26    21    26    1
    27    23    25   ar
    28    23    27    1
    29    25    28   un
    30    28    29   un
    31    28    30   un
    32    31    32    1
    33    31    33    1
    34    31    34    1
@<TRIPOS>SUBSTRUCTURE
     1 1           1 GROUP             0 ****  ****    0  
@<TRIPOS>MOLECULE
Molecule Name_00001_00001_00097
    34    34     1     0     0
SMALL
NO_CHARGES
****
Generated from the CSD

@<TRIPOS>ATOM
     1 C11      1.1112   0.2780   0.8470   C.3       1 1      0.0000
     2 C12      1.9354   0.2938  -0.4367   C.3       1 1      0.0000
     3 H12A     1.9665   1.3171  -0.8302   H         1 1      0.0000
     4 C13      3.3367  -0.1987  -0.2357   C.2       1 1      0.0000
     5 C14      3.6803  -1.5536  -0.7760   C.3       1 1      0.0000
     6 H14B     2.8966  -2.2649  -0.4873   H         1 1      0.0000
     7 H14A     4.6210  -1.8927  -0.3250   H         1 1      0.0000
     8 N        4.2302   0.5195   0.4141   N.pl3     1 1      0.0000
     9 HN       5.1545   0.1038   0.5279   H         1 1      0.0000
    10 C        4.0727   1.8937   0.8675   C.3       1 1      0.0000
    11 HC       5.0233   2.4217   0.8325   H         1 1      0.0000
    12 HB       3.3649   2.4307   0.2398   H         1 1      0.0000
    13 HA       3.7072   1.9223   1.8918   H         1 1      0.0000
    14 H12B     1.4407  -0.3359  -1.1864   H         1 1      0.0000
    15 O1       1.3590   1.4884   1.5573   O.3       1 1      0.0000
    16 H11      1.4334  -0.5724   1.4677   H         1 1      0.0000
    17 OH1      0.8449   1.4848   2.4022   H         1 1      0.0000
    18 C10     -0.3635   0.1259   0.5361   C.ar      1 1      0.0000
    19 C9      -1.1022  -0.9058   1.0994   C.ar      1 1      0.0000
    20 C5      -1.0029   1.0191  -0.3130   C.ar      1 1      0.0000
    21 C8      -2.4485  -1.0481   0.8224   C.ar      1 1      0.0000
    22 H9      -0.6158  -1.6101   1.7662   H         1 1      0.0000
    23 C6      -2.3486   0.8877  -0.5980   C.ar      1 1      0.0000
    24 H5      -0.4383   1.8312  -0.7589   H         1 1      0.0000
    25 C7      -3.0722  -0.1488  -0.0287   C.ar      1 1      0.0000
    26 H8      -3.0144  -1.8592   1.2685   H         1 1      0.0000
    27 H6      -2.8364   1.5920  -1.2638   H         1 1      0.0000
    28 NO      -4.3714  -0.2810  -0.3002   N.pl3     1 1      0.0000
    29 ON2     -4.8448   0.2466  -1.3382   O.2       1 1      0.0000
    30 ON1     -5.1060  -0.9316   0.4853   O.2       1 1      0.0000
    31 C15      3.8226  -1.5549  -2.2905   C.3       1 1      0.0000
    32 H15A     4.6099  -0.8727  -2.6045   H         1 1      0.0000
    33 H15C     4.0715  -2.5499  -2.6536   H         1 1      0.0000
    34 H15B     2.8947  -1.2431  -2.7654   H         1 1      0.0000
@<TRIPOS>BOND
     1     1     2    1
     2     1    15    1
     3     1    16    1
     4     1    18    1
     5     2     3    1
     6     2     4    1
     7     2    14    1
     8     4     5    1
     9     4     8    2
    10     5     6    1
    11     5     7    1
    12     5    31    1
    13     8     9    1
    14     8    10    1
    15    10    11    1
    16    10    12    1
    17    10    13    1
    18    15    17    1
    19    18    19   ar
    20    18    20   ar
    21    19    21   ar
    22    19    22    1
    23    20    23   ar
    24    20    24    1
    25    21    25   ar
    26    21    26    1
    27    23    25   ar
    28    23    27    1
    29    25    28   un
    30    28    29   un
    31    28    30   un
    32    31    32    1
    33    31    33    1
    34    31    34    1
@<TRIPOS>SUBSTRUCTURE
     1 1           1 GROUP             0 ****  ****    0  
@<TRIPOS>MOLECULE
Molecule Name_00001_00001_00098
    34    34     1     0     0
SMALL
NO_CHARGES
****
Generated from the CSD

@<TRIPOS>ATOM
     1 C11      1.1116   0.2801   0.8504   C.3       1 1      0.0000
     2 C12      1.9334   0.2955  -0.4348   C.3       1 1      0.0000
     3 H12A     1.9651   1.3190  -0.8279   H         1 1      0.0000
     4 C13      3.3344  -0.1989  -0.2368   C.2       1 1      0.0000
     5 C14      3.6752  -1.5539  -0.7784   C.3       1 1      0.0000
     6 H14B     2.8912  -2.2644  -0.4887   H         1 1      0.0000
     7 H14A     4.6164  -1.8945  -0.3294   H         1 1      0.0000
     8 N        4.2300   0.5178   0.4117   N.pl3     1 1      0.0000
     9 HN       5.1540   0.1009   0.5236   H         1 1      0.0000
    10 C        4.0751   1.8919   0.8662   C.3       1 1      0.0000
    11 HC       5.0264   2.4188   0.8297   H         1 1      0.0000
    12 HB       3.3669   2.4302   0.2401   H         1 1      0.0000
    13 HA       3.7116   1.9204   1.8913   H         1 1      0.0000
    14 H12B     1.4365  -0.3331  -1.1840   H         1 1      0.0000
    15 O1       1.3622   1.4898   1.5609   O.3       1 1      0.0000
    16 H11      1.4339  -0.5711   1.4700   H         1 1      0.0000
    17 OH1      0.8497   1.4864   2.4067   H         1 1      0.0000
    18 C10     -0.3640   0.1301   0.5422   C.ar      1 1      0.0000
    19 C9      -1.0025   1.0212  -0.3097   C.ar      1 1      0.0000
    20 C5      -1.1016  -0.9044   1.1019   C.ar      1 1      0.0000
    21 C8      -2.3475   0.8879  -0.5974   C.ar      1 1      0.0000
    22 H9      -0.4378   1.8333  -0.7555   H         1 1      0.0000
    23 C6      -2.4471  -1.0485   0.8222   C.ar      1 1      0.0000
    24 H5      -0.6150  -1.6091   1.7680   H         1 1      0.0000
    25 C7      -3.0707  -0.1496  -0.0294   C.ar      1 1      0.0000
    26 H8      -2.8349   1.5915  -1.2642   H         1 1      0.0000
    27 H6      -3.0126  -1.8609   1.2666   H         1 1      0.0000
    28 NO      -4.3693  -0.2833  -0.3030   N.pl3     1 1      0.0000
    29 ON2     -5.1044  -0.9350   0.4811   O.2       1 1      0.0000
    30 ON1     -4.8418   0.2442  -1.3415   O.2       1 1      0.0000
    31 C15      3.8147  -1.5546  -2.2932   C.3       1 1      0.0000
    32 H15A     4.6023  -0.8733  -2.6083   H         1 1      0.0000
    33 H15C     4.0616  -2.5497  -2.6574   H         1 1      0.0000
    34 H15B     2.8863  -1.2413  -2.7662   H         1 1      0.0000
@<TRIPOS>BOND
     1     1     2    1
     2     1    15    1
     3     1    16    1
     4     1    18    1
     5     2     3    1
     6     2     4    1
     7     2    14    1
     8     4     5    1
     9     4     8    2
    10     5     6    1
    11     5     7    1
    12     5    31    1
    13     8     9    1
    14     8    10    1
    15    10    11    1
    16    10    12    1
    17    10    13    1
    18    15    17    1
    19    18    19   ar
    20    18    20   ar
    21    19    21   ar
    22    19    22    1
    23    20    23   ar
    24    20    24    1
    25    21    25   ar
    26    21    26    1
    27    23    25   ar
    28    23    27    1
    29    25    28   un
    30    28    29   un
    31    28    30   un
    32    31    32    1
    33    31    33    1
    34    31    34    1
@<TRIPOS>SUBSTRUCTURE
     1 1           1 GROUP             0 ****  ****    0  
@<TRIPOS>MOLECULE
Molecule Name_00001_00001_00099
    34    34     1     0     0
SMALL
NO_CHARGES
****
Generated from the CSD

@<TRIPOS>ATOM
     1 C11      1.1899   0.2520   0.6908   C.3       1 1      0.0000
     2 C12      1.9238   0.5670  -0.6090   C.3       1 1      0.0000
     3 H12A     1.8945   1.6493  -0.7842   H         1 1      0.0000
     4 C13      3.3509   0.1090  -0.5983   C.2       1 1      0.0000
     5 C14      3.7012  -1.0901  -1.4260   C.3       1 1      0.0000
     6 H14B     4.7927  -1.1650  -1.5062   H         1 1      0.0000
     7 H14A     3.3006  -0.9577  -2.4386   H         1 1      0.0000
     8 N        4.2625   0.7201   0.1310   N.pl3     1 1      0.0000
     9 HN       5.2056   0.3330   0.1011   H         1 1      0.0000
    10 C        4.0912   1.9643   0.8668   C.3       1 1      0.0000
    11 HC       5.0197   2.5310   0.8857   H         1 1      0.0000
    12 HB       3.3260   2.5854   0.4062   H         1 1      0.0000
    13 HA       3.7943   1.7667   1.8947   H         1 1      0.0000
    14 H12B     1.4001   0.0810  -1.4415   H         1 1      0.0000
    15 O1       1.4455   1.3025   1.6193   O.3       1 1      0.0000
    16 H11      1.5813  -0.6912   1.1023   H         1 1      0.0000
    17 OH1      0.9905   1.1032   2.4745   H         1 1      0.0000
    18 C10     -0.2969   0.0986   0.4441   C.ar      1 1      0.0000
    19 C9      -0.9612  -1.0593   0.8257   C.ar      1 1      0.0000
    20 C5      -1.0216   1.1155  -0.1628   C.ar      1 1      0.0000
    21 C8      -2.3177  -1.2041   0.6064   C.ar      1 1      0.0000
    22 H9      -0.4076  -1.8614   1.3025   H         1 1      0.0000
    23 C6      -2.3785   0.9830  -0.3876   C.ar      1 1      0.0000
    24 H5      -0.5156   2.0266  -0.4646   H         1 1      0.0000
    25 C7      -3.0272  -0.1800  -0.0020   C.ar      1 1      0.0000
    26 H8      -2.8250  -2.1143   0.9087   H         1 1      0.0000
    27 H6      -2.9333   1.7848  -0.8634   H         1 1      0.0000
    28 NO      -4.3368  -0.3140  -0.2167   N.pl3     1 1      0.0000
    29 ON2     -4.8969   0.3915  -1.0933   O.2       1 1      0.0000
    30 ON1     -4.9944  -1.1441   0.4603   O.2       1 1      0.0000
    31 C15      3.1541  -2.3814  -0.8366   C.3       1 1      0.0000
    32 H15A     2.0691  -2.3437  -0.7656   H         1 1      0.0000
    33 H15C     3.4237  -3.2333  -1.4573   H         1 1      0.0000
    34 H15B     3.5534  -2.5494   0.1614   H         1 1      0.0000
@<TRIPOS>BOND
     1     1     2    1
     2     1    15    1
     3     1    16    1
     4     1    18    1
     5     2     3    1
     6     2     4    1
     7     2    14    1
     8     4     5    1
     9     4     8    2
    10     5     6    1
    11     5     7    1
    12     5    31    1
    13     8     9    1
    14     8    10    1
    15    10    11    1
    16    10    12    1
    17    10    13    1
    18    15    17    1
    19    18    19   ar
    20    18    20   ar
    21    19    21   ar
    22    19    22    1
    23    20    23   ar
    24    20    24    1
    25    21    25   ar
    26    21    26    1
    27    23    25   ar
    28    23    27    1
    29    25    28   un
    30    28    29   un
    31    28    30   un
    32    31    32    1
    33    31    33    1
    34    31    34    1
@<TRIPOS>SUBSTRUCTURE
     1 1           1 GROUP             0 ****  ****    0  
@<TRIPOS>MOLECULE
Molecule Name_00001_00001_00100
    34    34     1     0     0
SMALL
NO_CHARGES
****
Generated from the CSD

@<TRIPOS>ATOM
     1 C11      1.1903   0.2534   0.6943   C.3       1 1      0.0000
     2 C12      1.9216   0.5683  -0.6070   C.3       1 1      0.0000
     3 H12A     1.8928   1.6507  -0.7816   H         1 1      0.0000
     4 C13      3.3483   0.1090  -0.5996   C.2       1 1      0.0000
     5 C14      3.6957  -1.0900  -1.4286   C.3       1 1      0.0000
     6 H14B     4.7870  -1.1658  -1.5113   H         1 1      0.0000
     7 H14A     3.2930  -0.9568  -2.4403   H         1 1      0.0000
     8 N        4.2620   0.7190   0.1280   N.pl3     1 1      0.0000
     9 HN       5.2047   0.3311   0.0958   H         1 1      0.0000
    10 C        4.0935   1.9631   0.8646   C.3       1 1      0.0000
    11 HC       5.0225   2.5290   0.8818   H         1 1      0.0000
    12 HB       3.3278   2.5850   0.4060   H         1 1      0.0000
    13 HA       3.7987   1.7653   1.8931   H         1 1      0.0000
    14 H12B     1.3957   0.0831  -1.4385   H         1 1      0.0000
    15 O1       1.4488   1.3033   1.6227   O.3       1 1      0.0000
    16 H11      1.5818  -0.6903   1.1046   H         1 1      0.0000
    17 OH1      0.9956   1.1040   2.4788   H         1 1      0.0000
    18 C10     -0.2971   0.1014   0.4508   C.ar      1 1      0.0000
    19 C9      -1.0212   1.1169  -0.1590   C.ar      1 1      0.0000
    20 C5      -0.9605  -1.0583   0.8284   C.ar      1 1      0.0000
    21 C8      -2.3775   0.9830  -0.3868   C.ar      1 1      0.0000
    22 H9      -0.5153   2.0280  -0.4608   H         1 1      0.0000
    23 C6      -2.3165  -1.2045   0.6062   C.ar      1 1      0.0000
    24 H5      -0.4068  -1.8608   1.3044   H         1 1      0.0000
    25 C7      -3.0259  -0.1807  -0.0028   C.ar      1 1      0.0000
    26 H8      -2.9322   1.7844  -0.8637   H         1 1      0.0000
    27 H6      -2.8233  -2.1156   0.9066   H         1 1      0.0000
    28 NO      -4.3350  -0.3156  -0.2196   N.pl3     1 1      0.0000
    29 ON2     -4.9931  -1.1467   0.4558   O.2       1 1      0.0000
    30 ON1     -4.8943   0.3899  -1.0968   O.2       1 1      0.0000
    31 C15      3.1488  -2.3811  -0.8385   C.3       1 1      0.0000
    32 H15A     2.0640  -2.3424  -0.7651   H         1 1      0.0000
    33 H15C     3.4163  -3.2330  -1.4602   H         1 1      0.0000
    34 H15B     3.5502  -2.5498   0.1586   H         1 1      0.0000
@<TRIPOS>BOND
     1     1     2    1
     2     1    15    1
     3     1    16    1
     4     1    18    1
     5     2     3    1
     6     2     4    1
     7     2    14    1
     8     4     5    1
     9     4     8    2
    10     5     6    1
    11     5     7    1
    12     5    31    1
    13     8     9    1
    14     8    10    1
    15    10    11    1
    16    10    12    1
    17    10    13    1
    18    15    17    1
    19    18    19   ar
    20    18    20   ar
    21    19    21   ar
    22    19    22    1
    23    20    23   ar
    24    20    24    1
    25    21    25   ar
    26    21    26    1
    27    23    25   ar
    28    23    27    1
    29    25    28   un
    30    28    29   un
    31    28    30   un
    32    31    32    1
    33    31    33    1
    34    31    34    1
@<TRIPOS>SUBSTRUCTURE
     1 1           1 GROUP             0 ****  ****    0  
@<TRIPOS>MOLECULE
Molecule Name_00001_00001_00101
    34    34     1     0     0
SMALL
NO_CHARGES
****
Generated from the CSD

@<TRIPOS>ATOM
     1 C11      1.2084   0.5951   1.3213   C.3       1 1      0.0000
     2 C12      2.1156   1.0380   0.1776   C.3       1 1      0.0000
     3 H12A     2.7203   1.8909   0.5092   H         1 1      0.0000
     4 C13      3.0249  -0.0531  -0.3011   C.2       1 1      0.0000
     5 C14      2.4188  -1.3996  -0.5563   C.3       1 1      0.0000
     6 H14B     1.8437  -1.7079   0.3255   H         1 1      0.0000
     7 H14A     3.2210  -2.1330  -0.7044   H         1 1      0.0000
     8 N        4.3156   0.1529  -0.4683   N.pl3     1 1      0.0000
     9 HN       4.8695  -0.6467  -0.7747   H         1 1      0.0000
    10 C        5.0055   1.4322  -0.3891   C.3       1 1      0.0000
    11 HC       5.8814   1.4376  -1.0346   H         1 1      0.0000
    12 HB       4.3526   2.2451  -0.6993   H         1 1      0.0000
    13 HA       5.3341   1.6307   0.6289   H         1 1      0.0000
    14 H12B     1.4941   1.3768  -0.6604   H         1 1      0.0000
    15 O1       1.1760   1.6316   2.2989   O.3       1 1      0.0000
    16 H11      1.6285  -0.3140   1.7788   H         1 1      0.0000
    17 OH1      0.6054   1.3512   3.0565   H         1 1      0.0000
    18 C10     -0.1852   0.2879   0.8129   C.ar      1 1      0.0000
    19 C9      -0.5942  -1.0248   0.6203   C.ar      1 1      0.0000
    20 C5      -1.0790   1.3136   0.5362   C.ar      1 1      0.0000
    21 C8      -1.8650  -1.3117   0.1599   C.ar      1 1      0.0000
    22 H9       0.0934  -1.8364   0.8341   H         1 1      0.0000
    23 C6      -2.3526   1.0399   0.0753   C.ar      1 1      0.0000
    24 H5      -0.7733   2.3441   0.6838   H         1 1      0.0000
    25 C7      -2.7455  -0.2762  -0.1132   C.ar      1 1      0.0000
    26 H8      -2.1722  -2.3419   0.0129   H         1 1      0.0000
    27 H6      -3.0414   1.8506  -0.1379   H         1 1      0.0000
    28 NO      -3.9735  -0.5468  -0.5582   N.pl3     1 1      0.0000
    29 ON2     -4.6188   0.3384  -1.1745   O.2       1 1      0.0000
    30 ON1     -4.4699  -1.6837  -0.3557   O.2       1 1      0.0000
    31 C15      1.5066  -1.4035  -1.7738   C.3       1 1      0.0000
    32 H15A     2.0571  -1.1220  -2.6690   H         1 1      0.0000
    33 H15C     1.0816  -2.3921  -1.9340   H         1 1      0.0000
    34 H15B     0.6874  -0.6993  -1.6442   H         1 1      0.0000
@<TRIPOS>BOND
     1     1     2    1
     2     1    15    1
     3     1    16    1
     4     1    18    1
     5     2     3    1
     6     2     4    1
     7     2    14    1
     8     4     5    1
     9     4     8    2
    10     5     6    1
    11     5     7    1
    12     5    31    1
    13     8     9    1
    14     8    10    1
    15    10    11    1
    16    10    12    1
    17    10    13    1
    18    15    17    1
    19    18    19   ar
    20    18    20   ar
    21    19    21   ar
    22    19    22    1
    23    20    23   ar
    24    20    24    1
    25    21    25   ar
    26    21    26    1
    27    23    25   ar
    28    23    27    1
    29    25    28   un
    30    28    29   un
    31    28    30   un
    32    31    32    1
    33    31    33    1
    34    31    34    1
@<TRIPOS>SUBSTRUCTURE
     1 1           1 GROUP             0 ****  ****    0  
@<TRIPOS>MOLECULE
Molecule Name_00001_00001_00102
    34    34     1     0     0
SMALL
NO_CHARGES
****
Generated from the CSD

@<TRIPOS>ATOM
     1 C11      1.2094   0.5932   1.3245   C.3       1 1      0.0000
     2 C12      2.1133   1.0376   0.1787   C.3       1 1      0.0000
     3 H12A     2.7179   1.8910   0.5092   H         1 1      0.0000
     4 C13      3.0225  -0.0522  -0.3028   C.2       1 1      0.0000
     5 C14      2.4175  -1.3997  -0.5557   C.3       1 1      0.0000
     6 H14B     1.8463  -1.7088   0.3283   H         1 1      0.0000
     7 H14A     3.2203  -2.1318  -0.7069   H         1 1      0.0000
     8 N        4.3124   0.1556  -0.4744   N.pl3     1 1      0.0000
     9 HN       4.8664  -0.6433  -0.7825   H         1 1      0.0000
    10 C        5.0007   1.4359  -0.3979   C.3       1 1      0.0000
    11 HC       5.8744   1.4424  -1.0463   H         1 1      0.0000
    12 HB       4.3455   2.2478  -0.7060   H         1 1      0.0000
    13 HA       5.3325   1.6351   0.6190   H         1 1      0.0000
    14 H12B     1.4893   1.3762  -0.6576   H         1 1      0.0000
    15 O1       1.1797   1.6285   2.3034   O.3       1 1      0.0000
    16 H11      1.6310  -0.3164   1.7796   H         1 1      0.0000
    17 OH1      0.6114   1.3470   3.0623   H         1 1      0.0000
    18 C10     -0.1855   0.2865   0.8197   C.ar      1 1      0.0000
    19 C9      -1.0786   1.3127   0.5424   C.ar      1 1      0.0000
    20 C5      -0.5928  -1.0257   0.6205   C.ar      1 1      0.0000
    21 C8      -2.3513   1.0397   0.0786   C.ar      1 1      0.0000
    22 H9      -0.7731   2.3430   0.6918   H         1 1      0.0000
    23 C6      -1.8628  -1.3119   0.1572   C.ar      1 1      0.0000
    24 H5       0.0954  -1.8375   0.8315   H         1 1      0.0000
    25 C7      -2.7435  -0.2761  -0.1139   C.ar      1 1      0.0000
    26 H8      -3.0401   1.8507  -0.1337   H         1 1      0.0000
    27 H6      -2.1691  -2.3418   0.0064   H         1 1      0.0000
    28 NO      -3.9708  -0.5460  -0.5610   N.pl3     1 1      0.0000
    29 ON2     -4.4670  -1.6836  -0.3621   O.2       1 1      0.0000
    30 ON1     -4.6159   0.3407  -1.1755   O.2       1 1      0.0000
    31 C15      1.5006  -1.4050  -1.7696   C.3       1 1      0.0000
    32 H15A     2.0472  -1.1227  -2.6670   H         1 1      0.0000
    33 H15C     1.0765  -2.3943  -1.9282   H         1 1      0.0000
    34 H15B     0.6809  -0.7021  -1.6368   H         1 1      0.0000
@<TRIPOS>BOND
     1     1     2    1
     2     1    15    1
     3     1    16    1
     4     1    18    1
     5     2     3    1
     6     2     4    1
     7     2    14    1
     8     4     5    1
     9     4     8    2
    10     5     6    1
    11     5     7    1
    12     5    31    1
    13     8     9    1
    14     8    10    1
    15    10    11    1
    16    10    12    1
    17    10    13    1
    18    15    17    1
    19    18    19   ar
    20    18    20   ar
    21    19    21   ar
    22    19    22    1
    23    20    23   ar
    24    20    24    1
    25    21    25   ar
    26    21    26    1
    27    23    25   ar
    28    23    27    1
    29    25    28   un
    30    28    29   un
    31    28    30   un
    32    31    32    1
    33    31    33    1
    34    31    34    1
@<TRIPOS>SUBSTRUCTURE
     1 1           1 GROUP             0 ****  ****    0  
@<TRIPOS>MOLECULE
Molecule Name_00001_00001_00103
    34    34     1     0     0
SMALL
NO_CHARGES
****
Generated from the CSD

@<TRIPOS>ATOM
     1 C11      1.2873   1.1603   0.8779   C.3       1 1      0.0000
     2 C12      2.1853   1.1324  -0.3550   C.3       1 1      0.0000
     3 H12A     2.8828   1.9776  -0.3098   H         1 1      0.0000
     4 C13      2.9642  -0.1419  -0.4800   C.2       1 1      0.0000
     5 C14      2.6518  -1.0352  -1.6420   C.3       1 1      0.0000
     6 H14B     3.4436  -1.7882  -1.7395   H         1 1      0.0000
     7 H14A     2.6438  -0.4385  -2.5625   H         1 1      0.0000
     8 N        3.8738  -0.4807   0.4112   N.pl3     1 1      0.0000
     9 HN       4.3436  -1.3744   0.2668   H         1 1      0.0000
    10 C        4.3683   0.3474   1.5014   C.3       1 1      0.0000
    11 HC       5.3971   0.0896   1.7443   H         1 1      0.0000
    12 HB       4.3388   1.4011   1.2326   H         1 1      0.0000
    13 HA       3.7644   0.2084   2.3957   H         1 1      0.0000
    14 H12B     1.5655   1.2602  -1.2511   H         1 1      0.0000
    15 O1       1.2299   2.4987   1.3642   O.3       1 1      0.0000
    16 H11      1.7278   0.5168   1.6551   H         1 1      0.0000
    17 OH1      0.6652   2.5297   2.1756   H         1 1      0.0000
    18 C10     -0.0982   0.6465   0.5446   C.ar      1 1      0.0000
    19 C9      -0.4413  -0.6753   0.7946   C.ar      1 1      0.0000
    20 C5      -1.0504   1.4902  -0.0115   C.ar      1 1      0.0000
    21 C8      -1.7044  -1.1493   0.4958   C.ar      1 1      0.0000
    22 H9       0.2924  -1.3454   1.2305   H         1 1      0.0000
    23 C6      -2.3169   1.0285  -0.3148   C.ar      1 1      0.0000
    24 H5      -0.7965   2.5261  -0.2106   H         1 1      0.0000
    25 C7      -2.6437  -0.2946  -0.0604   C.ar      1 1      0.0000
    26 H8      -1.9598  -2.1847   0.6955   H         1 1      0.0000
    27 H6      -3.0518   1.6978  -0.7498   H         1 1      0.0000
    28 NO      -3.8646  -0.7463  -0.3513   N.pl3     1 1      0.0000
    29 ON2     -4.5682  -0.1334  -1.1935   O.2       1 1      0.0000
    30 ON1     -4.2961  -1.7793   0.2203   O.2       1 1      0.0000
    31 C15      1.3110  -1.7374  -1.4894   C.3       1 1      0.0000
    32 H15A     0.4906  -1.0350  -1.6211   H         1 1      0.0000
    33 H15C     1.2030  -2.5274  -2.2297   H         1 1      0.0000
    34 H15B     1.2197  -2.1839  -0.5015   H         1 1      0.0000
@<TRIPOS>BOND
     1     1     2    1
     2     1    15    1
     3     1    16    1
     4     1    18    1
     5     2     3    1
     6     2     4    1
     7     2    14    1
     8     4     5    1
     9     4     8    2
    10     5     6    1
    11     5     7    1
    12     5    31    1
    13     8     9    1
    14     8    10    1
    15    10    11    1
    16    10    12    1
    17    10    13    1
    18    15    17    1
    19    18    19   ar
    20    18    20   ar
    21    19    21   ar
    22    19    22    1
    23    20    23   ar
    24    20    24    1
    25    21    25   ar
    26    21    26    1
    27    23    25   ar
    28    23    27    1
    29    25    28   un
    30    28    29   un
    31    28    30   un
    32    31    32    1
    33    31    33    1
    34    31    34    1
@<TRIPOS>SUBSTRUCTURE
     1 1           1 GROUP             0 ****  ****    0  
@<TRIPOS>MOLECULE
Molecule Name_00001_00001_00104
    34    34     1     0     0
SMALL
NO_CHARGES
****
Generated from the CSD

@<TRIPOS>ATOM
     1 C11      1.2881   1.1607   0.8813   C.3       1 1      0.0000
     2 C12      2.1828   1.1329  -0.3540   C.3       1 1      0.0000
     3 H12A     2.8807   1.9779  -0.3104   H         1 1      0.0000
     4 C13      2.9609  -0.1417  -0.4816   C.2       1 1      0.0000
     5 C14      2.6460  -1.0337  -1.6439   C.3       1 1      0.0000
     6 H14B     3.4374  -1.7868  -1.7437   H         1 1      0.0000
     7 H14A     2.6365  -0.4360  -2.5638   H         1 1      0.0000
     8 N        3.8718  -0.4818   0.4077   N.pl3     1 1      0.0000
     9 HN       4.3409  -1.3755   0.2616   H         1 1      0.0000
    10 C        4.3686   0.3450   1.4978   C.3       1 1      0.0000
    11 HC       5.3977   0.0866   1.7387   H         1 1      0.0000
    12 HB       4.3391   1.3990   1.2300   H         1 1      0.0000
    13 HA       3.7662   0.2055   2.3930   H         1 1      0.0000
    14 H12B     1.5606   1.2614  -1.2484   H         1 1      0.0000
    15 O1       1.2328   2.4989   1.3685   O.3       1 1      0.0000
    16 H11      1.7303   0.5165   1.6569   H         1 1      0.0000
    17 OH1      0.6703   2.5297   2.1813   H         1 1      0.0000
    18 C10     -0.0987   0.6480   0.5513   C.ar      1 1      0.0000
    19 C9      -1.0498   1.4909  -0.0076   C.ar      1 1      0.0000
    20 C5      -0.4404  -0.6751   0.7971   C.ar      1 1      0.0000
    21 C8      -2.3154   1.0285  -0.3138   C.ar      1 1      0.0000
    22 H9      -0.7958   2.5268  -0.2066   H         1 1      0.0000
    23 C6      -1.7025  -1.1497   0.4954   C.ar      1 1      0.0000
    24 H5       0.2936  -1.3454   1.2320   H         1 1      0.0000
    25 C7      -2.6416  -0.2951  -0.0611   C.ar      1 1      0.0000
    26 H8      -3.0498   1.6976  -0.7497   H         1 1      0.0000
    27 H6      -1.9573  -2.1857   0.6930   H         1 1      0.0000
    28 NO      -3.8618  -0.7472  -0.3542   N.pl3     1 1      0.0000
    29 ON2     -4.2935  -1.7810   0.2157   O.2       1 1      0.0000
    30 ON1     -4.5647  -0.1338  -1.1967   O.2       1 1      0.0000
    31 C15      1.3053  -1.7356  -1.4896   C.3       1 1      0.0000
    32 H15A     0.4849  -1.0326  -1.6181   H         1 1      0.0000
    33 H15C     1.1952  -2.5242  -2.2310   H         1 1      0.0000
    34 H15B     1.2160  -2.1838  -0.5022   H         1 1      0.0000
@<TRIPOS>BOND
     1     1     2    1
     2     1    15    1
     3     1    16    1
     4     1    18    1
     5     2     3    1
     6     2     4    1
     7     2    14    1
     8     4     5    1
     9     4     8    2
    10     5     6    1
    11     5     7    1
    12     5    31    1
    13     8     9    1
    14     8    10    1
    15    10    11    1
    16    10    12    1
    17    10    13    1
    18    15    17    1
    19    18    19   ar
    20    18    20   ar
    21    19    21   ar
    22    19    22    1
    23    20    23   ar
    24    20    24    1
    25    21    25   ar
    26    21    26    1
    27    23    25   ar
    28    23    27    1
    29    25    28   un
    30    28    29   un
    31    28    30   un
    32    31    32    1
    33    31    33    1
    34    31    34    1
@<TRIPOS>SUBSTRUCTURE
     1 1           1 GROUP             0 ****  ****    0  
@<TRIPOS>MOLECULE
Molecule Name_00001_00001_00105
    34    34     1     0     0
SMALL
NO_CHARGES
****
Generated from the CSD

@<TRIPOS>ATOM
     1 C11      1.2519   0.7156   1.2403   C.3       1 1      0.0000
     2 C12      2.0828   1.2838   0.0940   C.3       1 1      0.0000
     3 H12A     2.7810   2.0299   0.4926   H         1 1      0.0000
     4 C13      2.8552   0.2319  -0.6432   C.2       1 1      0.0000
     5 C14      2.1246  -0.5676  -1.6789   C.3       1 1      0.0000
     6 H14B     2.7609  -0.6733  -2.5662   H         1 1      0.0000
     7 H14A     1.2199  -0.0251  -1.9800   H         1 1      0.0000
     8 N        4.1240  -0.0021  -0.3756   N.pl3     1 1      0.0000
     9 HN       4.5718  -0.7498  -0.9054   H         1 1      0.0000
    10 C        4.9832   0.7820   0.4995   C.3       1 1      0.0000
    11 HC       6.0177   0.4555   0.4165   H         1 1      0.0000
    12 HB       4.9406   1.8378   0.2408   H         1 1      0.0000
    13 HA       4.6767   0.6746   1.5380   H         1 1      0.0000
    14 H12B     1.4160   1.7955  -0.6109   H         1 1      0.0000
    15 O1       1.1976   1.6861   2.2825   O.3       1 1      0.0000
    16 H11      1.7444  -0.1917   1.6228   H         1 1      0.0000
    17 OH1      0.6768   1.3245   3.0415   H         1 1      0.0000
    18 C10     -0.1405   0.3536   0.7659   C.ar      1 1      0.0000
    19 C9      -0.6311  -0.9346   0.9311   C.ar      1 1      0.0000
    20 C5      -0.9518   1.3053   0.1629   C.ar      1 1      0.0000
    21 C8      -1.9015  -1.2703   0.5035   C.ar      1 1      0.0000
    22 H9      -0.0086  -1.6880   1.4024   H         1 1      0.0000
    23 C6      -2.2239   0.9822  -0.2691   C.ar      1 1      0.0000
    24 H5      -0.5818   2.3164   0.0289   H         1 1      0.0000
    25 C7      -2.6989  -0.3090  -0.0982   C.ar      1 1      0.0000
    26 H8      -2.2729  -2.2809   0.6378   H         1 1      0.0000
    27 H6      -2.8478   1.7351  -0.7396   H         1 1      0.0000
    28 NO      -3.9260  -0.6271  -0.5134   N.pl3     1 1      0.0000
    29 ON2     -4.4870   0.0794  -1.3886   O.2       1 1      0.0000
    30 ON1     -4.5058  -1.6293  -0.0242   O.2       1 1      0.0000
    31 C15      1.7351  -1.9496  -1.1763   C.3       1 1      0.0000
    32 H15A     1.5686  -1.9362  -0.1013   H         1 1      0.0000
    33 H15C     0.8207  -2.2911  -1.6568   H         1 1      0.0000
    34 H15B     2.5200  -2.6725  -1.3887   H         1 1      0.0000
@<TRIPOS>BOND
     1     1     2    1
     2     1    15    1
     3     1    16    1
     4     1    18    1
     5     2     3    1
     6     2     4    1
     7     2    14    1
     8     4     5    1
     9     4     8    2
    10     5     6    1
    11     5     7    1
    12     5    31    1
    13     8     9    1
    14     8    10    1
    15    10    11    1
    16    10    12    1
    17    10    13    1
    18    15    17    1
    19    18    19   ar
    20    18    20   ar
    21    19    21   ar
    22    19    22    1
    23    20    23   ar
    24    20    24    1
    25    21    25   ar
    26    21    26    1
    27    23    25   ar
    28    23    27    1
    29    25    28   un
    30    28    29   un
    31    28    30   un
    32    31    32    1
    33    31    33    1
    34    31    34    1
@<TRIPOS>SUBSTRUCTURE
     1 1           1 GROUP             0 ****  ****    0  
@<TRIPOS>MOLECULE
Molecule Name_00001_00001_00106
    34    34     1     0     0
SMALL
NO_CHARGES
****
Generated from the CSD

@<TRIPOS>ATOM
     1 C11      1.2528   0.7157   1.2438   C.3       1 1      0.0000
     2 C12      2.0813   1.2842   0.0958   C.3       1 1      0.0000
     3 H12A     2.7810   2.0294   0.4933   H         1 1      0.0000
     4 C13      2.8510   0.2323  -0.6442   C.2       1 1      0.0000
     5 C14      2.1172  -0.5658  -1.6787   C.3       1 1      0.0000
     6 H14B     2.7511  -0.6711  -2.5677   H         1 1      0.0000
     7 H14A     1.2121  -0.0225  -1.9769   H         1 1      0.0000
     8 N        4.1204  -0.0028  -0.3801   N.pl3     1 1      0.0000
     9 HN       4.5663  -0.7503  -0.9116   H         1 1      0.0000
    10 C        4.9823   0.7801   0.4935   C.3       1 1      0.0000
    11 HC       6.0211   0.4763   0.3819   H         1 1      0.0000
    12 HB       4.9134   1.8399   0.2583   H         1 1      0.0000
    13 HA       4.7002   0.6448   1.5355   H         1 1      0.0000
    14 H12B     1.4130   1.7970  -0.6070   H         1 1      0.0000
    15 O1       1.2018   1.6854   2.2869   O.3       1 1      0.0000
    16 H11      1.7458  -0.1922   1.6244   H         1 1      0.0000
    17 OH1      0.6826   1.3236   3.0469   H         1 1      0.0000
    18 C10     -0.1409   0.3548   0.7726   C.ar      1 1      0.0000
    19 C9      -0.9513   1.3062   0.1679   C.ar      1 1      0.0000
    20 C5      -0.6295  -0.9348   0.9323   C.ar      1 1      0.0000
    21 C8      -2.2223   0.9826  -0.2669   C.ar      1 1      0.0000
    22 H9      -0.5816   2.3176   0.0351   H         1 1      0.0000
    23 C6      -1.8987  -1.2711   0.5018   C.ar      1 1      0.0000
    24 H5      -0.0064  -1.6889   1.4017   H         1 1      0.0000
    25 C7      -2.6964  -0.3094  -0.0990   C.ar      1 1      0.0000
    26 H8      -2.8460   1.7356  -0.7374   H         1 1      0.0000
    27 H6      -2.2691  -2.2824   0.6331   H         1 1      0.0000
    28 NO      -3.9226  -0.6277  -0.5164   N.pl3     1 1      0.0000
    29 ON2     -4.5021  -1.6314  -0.0299   O.2       1 1      0.0000
    30 ON1     -4.4832   0.0799  -1.3910   O.2       1 1      0.0000
    31 C15      1.7281  -1.9479  -1.1762   C.3       1 1      0.0000
    32 H15A     1.5656  -1.9356  -0.1005   H         1 1      0.0000
    33 H15C     0.8115  -2.2880  -1.6536   H         1 1      0.0000
    34 H15B     2.5114  -2.6715  -1.3924   H         1 1      0.0000
@<TRIPOS>BOND
     1     1     2    1
     2     1    15    1
     3     1    16    1
     4     1    18    1
     5     2     3    1
     6     2     4    1
     7     2    14    1
     8     4     5    1
     9     4     8    2
    10     5     6    1
    11     5     7    1
    12     5    31    1
    13     8     9    1
    14     8    10    1
    15    10    11    1
    16    10    12    1
    17    10    13    1
    18    15    17    1
    19    18    19   ar
    20    18    20   ar
    21    19    21   ar
    22    19    22    1
    23    20    23   ar
    24    20    24    1
    25    21    25   ar
    26    21    26    1
    27    23    25   ar
    28    23    27    1
    29    25    28   un
    30    28    29   un
    31    28    30   un
    32    31    32    1
    33    31    33    1
    34    31    34    1
@<TRIPOS>SUBSTRUCTURE
     1 1           1 GROUP             0 ****  ****    0  
@<TRIPOS>MOLECULE
Molecule Name_00001_00001_00107
    34    34     1     0     0
SMALL
NO_CHARGES
****
Generated from the CSD

@<TRIPOS>ATOM
     1 C11      1.3937  -0.2713   1.4423   C.3       1 1      0.0000
     2 C12      2.2981   0.7678   0.7868   C.3       1 1      0.0000
     3 H12A     3.0811   1.0606   1.4968   H         1 1      0.0000
     4 C13      2.9382   0.2710  -0.4741   C.2       1 1      0.0000
     5 C14      3.7368  -0.9946  -0.3950   C.3       1 1      0.0000
     6 H14B     4.2905  -1.0116   0.5519   H         1 1      0.0000
     7 H14A     4.4704  -1.0086  -1.2106   H         1 1      0.0000
     8 N        2.8266   0.9334  -1.6077   N.pl3     1 1      0.0000
     9 HN       3.3106   0.5410  -2.4151   H         1 1      0.0000
    10 C        1.9780   2.0900  -1.8546   C.3       1 1      0.0000
    11 HC       2.2769   2.5983  -2.7690   H         1 1      0.0000
    12 HB       0.9369   1.7924  -1.9587   H         1 1      0.0000
    13 HA       2.0471   2.8011  -1.0341   H         1 1      0.0000
    14 H12B     1.7061   1.6623   0.5571   H         1 1      0.0000
    15 O1       1.4018  -0.0526   2.8505   O.3       1 1      0.0000
    16 H11      1.7947  -1.2755   1.2348   H         1 1      0.0000
    17 OH1      0.8334  -0.7311   3.2918   H         1 1      0.0000
    18 C10     -0.0140  -0.1827   0.8896   C.ar      1 1      0.0000
    19 C9      -0.6217  -1.2941   0.3212   C.ar      1 1      0.0000
    20 C5      -0.7225   1.0098   0.9472   C.ar      1 1      0.0000
    21 C8      -1.9066  -1.2206  -0.1817   C.ar      1 1      0.0000
    22 H9      -0.0803  -2.2330   0.2711   H         1 1      0.0000
    23 C6      -2.0080   1.0963   0.4478   C.ar      1 1      0.0000
    24 H5      -0.2605   1.8859   1.3903   H         1 1      0.0000
    25 C7      -2.6005  -0.0221  -0.1180   C.ar      1 1      0.0000
    26 H8      -2.3700  -2.0963  -0.6241   H         1 1      0.0000
    27 H6      -2.5507   2.0344   0.4983   H         1 1      0.0000
    28 NO      -3.8410   0.0551  -0.6021   N.pl3     1 1      0.0000
    29 ON2     -4.3159   1.1761  -0.9149   O.2       1 1      0.0000
    30 ON1     -4.5195  -0.9940  -0.7395   O.2       1 1      0.0000
    31 C15      2.8643  -2.2374  -0.4856   C.3       1 1      0.0000
    32 H15A     1.8195  -1.9660  -0.6213   H         1 1      0.0000
    33 H15C     3.1649  -2.8592  -1.3263   H         1 1      0.0000
    34 H15B     2.9449  -2.8322   0.4218   H         1 1      0.0000
@<TRIPOS>BOND
     1     1     2    1
     2     1    15    1
     3     1    16    1
     4     1    18    1
     5     2     3    1
     6     2     4    1
     7     2    14    1
     8     4     5    1
     9     4     8    2
    10     5     6    1
    11     5     7    1
    12     5    31    1
    13     8     9    1
    14     8    10    1
    15    10    11    1
    16    10    12    1
    17    10    13    1
    18    15    17    1
    19    18    19   ar
    20    18    20   ar
    21    19    21   ar
    22    19    22    1
    23    20    23   ar
    24    20    24    1
    25    21    25   ar
    26    21    26    1
    27    23    25   ar
    28    23    27    1
    29    25    28   un
    30    28    29   un
    31    28    30   un
    32    31    32    1
    33    31    33    1
    34    31    34    1
@<TRIPOS>SUBSTRUCTURE
     1 1           1 GROUP             0 ****  ****    0  
@<TRIPOS>MOLECULE
Molecule Name_00001_00001_00108
    34    34     1     0     0
SMALL
NO_CHARGES
****
Generated from the CSD

@<TRIPOS>ATOM
     1 C11      1.3951  -0.2709   1.4450   C.3       1 1      0.0000
     2 C12      2.2971   0.7682   0.7863   C.3       1 1      0.0000
     3 H12A     3.0819   1.0620   1.4940   H         1 1      0.0000
     4 C13      2.9341   0.2709  -0.4759   C.2       1 1      0.0000
     5 C14      3.7339  -0.9940  -0.3980   C.3       1 1      0.0000
     6 H14B     4.2903  -1.0098   0.5473   H         1 1      0.0000
     7 H14A     4.4652  -1.0081  -1.2156   H         1 1      0.0000
     8 N        2.8188   0.9323  -1.6098   N.pl3     1 1      0.0000
     9 HN       3.3009   0.5396  -2.4182   H         1 1      0.0000
    10 C        1.9686   2.0880  -1.8553   C.3       1 1      0.0000
    11 HC       2.2023   2.5401  -2.8170   H         1 1      0.0000
    12 HB       0.9188   1.8030  -1.8624   H         1 1      0.0000
    13 HA       2.1103   2.8418  -1.0836   H         1 1      0.0000
    14 H12B     1.7040   1.6622   0.5576   H         1 1      0.0000
    15 O1       1.4066  -0.0510   2.8530   O.3       1 1      0.0000
    16 H11      1.7963  -1.2750   1.2373   H         1 1      0.0000
    17 OH1      0.8399  -0.7295   3.2963   H         1 1      0.0000
    18 C10     -0.0141  -0.1838   0.8959   C.ar      1 1      0.0000
    19 C9      -0.7215   1.0096   0.9500   C.ar      1 1      0.0000
    20 C5      -0.6201  -1.2944   0.3241   C.ar      1 1      0.0000
    21 C8      -2.0059   1.0964   0.4480   C.ar      1 1      0.0000
    22 H9      -0.2595   1.8859   1.3925   H         1 1      0.0000
    23 C6      -1.9039  -1.2205  -0.1814   C.ar      1 1      0.0000
    24 H5      -0.0782  -2.2330   0.2736   H         1 1      0.0000
    25 C7      -2.5978  -0.0219  -0.1187   C.ar      1 1      0.0000
    26 H8      -2.5484   2.0348   0.4970   H         1 1      0.0000
    27 H6      -2.3666  -2.0959  -0.6251   H         1 1      0.0000
    28 NO      -3.8375   0.0556  -0.6047   N.pl3     1 1      0.0000
    29 ON2     -4.5160  -0.9934  -0.7431   O.2       1 1      0.0000
    30 ON1     -4.3118   1.1767  -0.9181   O.2       1 1      0.0000
    31 C15      2.8622  -2.2376  -0.4852   C.3       1 1      0.0000
    32 H15A     1.8167  -1.9671  -0.6177   H         1 1      0.0000
    33 H15C     3.1606  -2.8596  -1.3264   H         1 1      0.0000
    34 H15B     2.9461  -2.8318   0.4224   H         1 1      0.0000
@<TRIPOS>BOND
     1     1     2    1
     2     1    15    1
     3     1    16    1
     4     1    18    1
     5     2     3    1
     6     2     4    1
     7     2    14    1
     8     4     5    1
     9     4     8    2
    10     5     6    1
    11     5     7    1
    12     5    31    1
    13     8     9    1
    14     8    10    1
    15    10    11    1
    16    10    12    1
    17    10    13    1
    18    15    17    1
    19    18    19   ar
    20    18    20   ar
    21    19    21   ar
    22    19    22    1
    23    20    23   ar
    24    20    24    1
    25    21    25   ar
    26    21    26    1
    27    23    25   ar
    28    23    27    1
    29    25    28   un
    30    28    29   un
    31    28    30   un
    32    31    32    1
    33    31    33    1
    34    31    34    1
@<TRIPOS>SUBSTRUCTURE
     1 1           1 GROUP             0 ****  ****    0  
@<TRIPOS>MOLECULE
Molecule Name_00001_00001_00109
    34    34     1     0     0
SMALL
NO_CHARGES
****
Generated from the CSD

@<TRIPOS>ATOM
     1 C11      1.1609   1.4704   0.3876   C.3       1 1      0.0000
     2 C12      2.1434   0.8197  -0.5812   C.3       1 1      0.0000
     3 H12A     2.8591   1.5752  -0.9274   H         1 1      0.0000
     4 C13      2.8935  -0.3247   0.0304   C.2       1 1      0.0000
     5 C14      2.2077  -1.6562   0.0808   C.3       1 1      0.0000
     6 H14B     1.1937  -1.5234   0.4778   H         1 1      0.0000
     7 H14A     2.7516  -2.3151   0.7689   H         1 1      0.0000
     8 N        4.1023  -0.1645   0.5299   N.pl3     1 1      0.0000
     9 HN       4.5358  -0.9873   0.9486   H         1 1      0.0000
    10 C        4.9308   1.0278   0.4263   C.3       1 1      0.0000
    11 HC       5.9561   0.8104   0.7182   H         1 1      0.0000
    12 HB       4.9429   1.4046  -0.5941   H         1 1      0.0000
    13 HA       4.5544   1.8163   1.0746   H         1 1      0.0000
    14 H12B     1.5929   0.4567  -1.4579   H         1 1      0.0000
    15 O1       1.1038   2.8657   0.1031   O.3       1 1      0.0000
    16 H11      1.5281   1.3306   1.4161   H         1 1      0.0000
    17 OH1      0.4837   3.3051   0.7360   H         1 1      0.0000
    18 C10     -0.2103   0.8378   0.2673   C.ar      1 1      0.0000
    19 C9      -1.2561   1.2571   1.0784   C.ar      1 1      0.0000
    20 C5      -0.4459  -0.1683  -0.6600   C.ar      1 1      0.0000
    21 C8      -2.5099   0.6863   0.9713   C.ar      1 1      0.0000
    22 H9      -1.0866   2.0437   1.8062   H         1 1      0.0000
    23 C6      -1.6951  -0.7472  -0.7769   C.ar      1 1      0.0000
    24 H5       0.3619  -0.5046  -1.3015   H         1 1      0.0000
    25 C7      -2.7289  -0.3183   0.0413   C.ar      1 1      0.0000
    26 H8      -3.3188   1.0225   1.6116   H         1 1      0.0000
    27 H6      -1.8661  -1.5331  -1.5051   H         1 1      0.0000
    28 NO      -3.9370  -0.8735  -0.0665   N.pl3     1 1      0.0000
    29 ON2     -4.0522  -2.0115  -0.5877   O.2       1 1      0.0000
    30 ON1     -4.9450  -0.2516   0.3543   O.2       1 1      0.0000
    31 C15      2.1259  -2.3185  -1.2862   C.3       1 1      0.0000
    32 H15A     3.0844  -2.7533  -1.5621   H         1 1      0.0000
    33 H15C     1.3813  -3.1117  -1.2866   H         1 1      0.0000
    34 H15B     1.8500  -1.5942  -2.0498   H         1 1      0.0000
@<TRIPOS>BOND
     1     1     2    1
     2     1    15    1
     3     1    16    1
     4     1    18    1
     5     2     3    1
     6     2     4    1
     7     2    14    1
     8     4     5    1
     9     4     8    2
    10     5     6    1
    11     5     7    1
    12     5    31    1
    13     8     9    1
    14     8    10    1
    15    10    11    1
    16    10    12    1
    17    10    13    1
    18    15    17    1
    19    18    19   ar
    20    18    20   ar
    21    19    21   ar
    22    19    22    1
    23    20    23   ar
    24    20    24    1
    25    21    25   ar
    26    21    26    1
    27    23    25   ar
    28    23    27    1
    29    25    28   un
    30    28    29   un
    31    28    30   un
    32    31    32    1
    33    31    33    1
    34    31    34    1
@<TRIPOS>SUBSTRUCTURE
     1 1           1 GROUP             0 ****  ****    0  
@<TRIPOS>MOLECULE
Molecule Name_00001_00001_00110
    34    34     1     0     0
SMALL
NO_CHARGES
****
Generated from the CSD

@<TRIPOS>ATOM
     1 C11      1.1609   1.4712   0.3868   C.3       1 1      0.0000
     2 C12      2.1437   0.8197  -0.5812   C.3       1 1      0.0000
     3 H12A     2.8604   1.5746  -0.9268   H         1 1      0.0000
     4 C13      2.8923  -0.3254   0.0310   C.2       1 1      0.0000
     5 C14      2.2054  -1.6563   0.0806   C.3       1 1      0.0000
     6 H14B     1.1911  -1.5228   0.4766   H         1 1      0.0000
     7 H14A     2.7481  -2.3157   0.7692   H         1 1      0.0000
     8 N        4.1007  -0.1662   0.5317   N.pl3     1 1      0.0000
     9 HN       4.5332  -0.9893   0.9507   H         1 1      0.0000
    10 C        4.9303   1.0255   0.4291   C.3       1 1      0.0000
    11 HC       5.9493   0.8135   0.7461   H         1 1      0.0000
    12 HB       4.9642   1.3877  -0.5961   H         1 1      0.0000
    13 HA       4.5393   1.8228   1.0577   H         1 1      0.0000
    14 H12B     1.5936   0.4572  -1.4583   H         1 1      0.0000
    15 O1       1.1075   2.8671   0.1041   O.3       1 1      0.0000
    16 H11      1.5260   1.3292   1.4157   H         1 1      0.0000
    17 OH1      0.4873   3.3070   0.7366   H         1 1      0.0000
    18 C10     -0.2114   0.8418   0.2632   C.ar      1 1      0.0000
    19 C9      -0.4460  -0.1668  -0.6616   C.ar      1 1      0.0000
    20 C5      -1.2565   1.2590   1.0763   C.ar      1 1      0.0000
    21 C8      -1.6946  -0.7472  -0.7770   C.ar      1 1      0.0000
    22 H9       0.3621  -0.5039  -1.3024   H         1 1      0.0000
    23 C6      -2.5097   0.6866   0.9707   C.ar      1 1      0.0000
    24 H5      -1.0869   2.0451   1.8046   H         1 1      0.0000
    25 C7      -2.7284  -0.3187   0.0413   C.ar      1 1      0.0000
    26 H8      -1.8651  -1.5342  -1.5043   H         1 1      0.0000
    27 H6      -3.3183   1.0221   1.6117   H         1 1      0.0000
    28 NO      -3.9360  -0.8748  -0.0656   N.pl3     1 1      0.0000
    29 ON2     -4.9444  -0.2536   0.3553   O.2       1 1      0.0000
    30 ON1     -4.0506  -2.0132  -0.5861   O.2       1 1      0.0000
    31 C15      2.1246  -2.3184  -1.2865   C.3       1 1      0.0000
    32 H15A     3.0804  -2.7621  -1.5573   H         1 1      0.0000
    33 H15C     1.3726  -3.1047  -1.2904   H         1 1      0.0000
    34 H15B     1.8592  -1.5919  -2.0518   H         1 1      0.0000
@<TRIPOS>BOND
     1     1     2    1
     2     1    15    1
     3     1    16    1
     4     1    18    1
     5     2     3    1
     6     2     4    1
     7     2    14    1
     8     4     5    1
     9     4     8    2
    10     5     6    1
    11     5     7    1
    12     5    31    1
    13     8     9    1
    14     8    10    1
    15    10    11    1
    16    10    12    1
    17    10    13    1
    18    15    17    1
    19    18    19   ar
    20    18    20   ar
    21    19    21   ar
    22    19    22    1
    23    20    23   ar
    24    20    24    1
    25    21    25   ar
    26    21    26    1
    27    23    25   ar
    28    23    27    1
    29    25    28   un
    30    28    29   un
    31    28    30   un
    32    31    32    1
    33    31    33    1
    34    31    34    1
@<TRIPOS>SUBSTRUCTURE
     1 1           1 GROUP             0 ****  ****    0  
@<TRIPOS>MOLECULE
Molecule Name_00001_00001_00111
    34    34     1     0     0
SMALL
NO_CHARGES
****
Generated from the CSD

@<TRIPOS>ATOM
     1 C11      1.1871  -0.6840  -0.1825   C.3       1 1      0.0000
     2 C12      1.9644   0.2832   0.7050   C.3       1 1      0.0000
     3 H12A     1.9958  -0.1141   1.7268   H         1 1      0.0000
     4 C13      3.3648   0.5174   0.2250   C.2       1 1      0.0000
     5 C14      4.4142  -0.4693   0.6381   C.3       1 1      0.0000
     6 H14B     4.2973  -0.6925   1.7058   H         1 1      0.0000
     7 H14A     5.4053  -0.0204   0.4978   H         1 1      0.0000
     8 N        3.6714   1.5656  -0.5124   N.pl3     1 1      0.0000
     9 HN       4.6507   1.6651  -0.7792   H         1 1      0.0000
    10 C        2.7371   2.5186  -1.0933   C.3       1 1      0.0000
    11 HC       3.1363   2.9356  -2.0155   H         1 1      0.0000
    12 HB       1.7872   2.0404  -1.3225   H         1 1      0.0000
    13 HA       2.5462   3.3397  -0.4054   H         1 1      0.0000
    14 H12B     1.4339   1.2428   0.7375   H         1 1      0.0000
    15 O1       1.4876  -2.0150   0.2290   O.3       1 1      0.0000
    16 H11      1.5123  -0.5511  -1.2260   H         1 1      0.0000
    17 OH1      1.3896  -2.6273  -0.5414   H         1 1      0.0000
    18 C10     -0.3011  -0.4144  -0.0956   C.ar      1 1      0.0000
    19 C9      -1.2059  -1.4638  -0.0081   C.ar      1 1      0.0000
    20 C5      -0.7851   0.8868  -0.0964   C.ar      1 1      0.0000
    21 C8      -2.5642  -1.2244   0.0747   C.ar      1 1      0.0000
    22 H9      -0.8414  -2.4858  -0.0047   H         1 1      0.0000
    23 C6      -2.1411   1.1395  -0.0141   C.ar      1 1      0.0000
    24 H5      -0.0892   1.7166  -0.1625   H         1 1      0.0000
    25 C7      -3.0320   0.0806   0.0714   C.ar      1 1      0.0000
    26 H8      -3.2610  -2.0534   0.1419   H         1 1      0.0000
    27 H6      -2.5067   2.1610  -0.0163   H         1 1      0.0000
    28 NO      -4.3422   0.3181   0.1507   N.pl3     1 1      0.0000
    29 ON2     -4.7977   1.4205  -0.2456   O.2       1 1      0.0000
    30 ON1     -5.1048  -0.5636   0.6208   O.2       1 1      0.0000
    31 C15      4.3355  -1.7654  -0.1545   C.3       1 1      0.0000
    32 H15A     3.7820  -1.6187  -1.0796   H         1 1      0.0000
    33 H15C     5.3311  -2.1233  -0.4084   H         1 1      0.0000
    34 H15B     3.8336  -2.5399   0.4216   H         1 1      0.0000
@<TRIPOS>BOND
     1     1     2    1
     2     1    15    1
     3     1    16    1
     4     1    18    1
     5     2     3    1
     6     2     4    1
     7     2    14    1
     8     4     5    1
     9     4     8    2
    10     5     6    1
    11     5     7    1
    12     5    31    1
    13     8     9    1
    14     8    10    1
    15    10    11    1
    16    10    12    1
    17    10    13    1
    18    15    17    1
    19    18    19   ar
    20    18    20   ar
    21    19    21   ar
    22    19    22    1
    23    20    23   ar
    24    20    24    1
    25    21    25   ar
    26    21    26    1
    27    23    25   ar
    28    23    27    1
    29    25    28   un
    30    28    29   un
    31    28    30   un
    32    31    32    1
    33    31    33    1
    34    31    34    1
@<TRIPOS>SUBSTRUCTURE
     1 1           1 GROUP             0 ****  ****    0  
@<TRIPOS>MOLECULE
Molecule Name_00001_00001_00112
    34    34     1     0     0
SMALL
NO_CHARGES
****
Generated from the CSD

@<TRIPOS>ATOM
     1 C11      1.1870  -0.6844  -0.1778   C.3       1 1      0.0000
     2 C12      1.9667   0.2837   0.7066   C.3       1 1      0.0000
     3 H12A     2.0009  -0.1126   1.7288   H         1 1      0.0000
     4 C13      3.3657   0.5176   0.2227   C.2       1 1      0.0000
     5 C14      4.4164  -0.4687   0.6338   C.3       1 1      0.0000
     6 H14B     4.3024  -0.6909   1.7020   H         1 1      0.0000
     7 H14A     5.4070  -0.0198   0.4903   H         1 1      0.0000
     8 N        3.6703   1.5651  -0.5165   N.pl3     1 1      0.0000
     9 HN       4.6488   1.6645  -0.7860   H         1 1      0.0000
    10 C        2.7343   2.5176  -1.0957   C.3       1 1      0.0000
    11 HC       3.1310   2.9337  -2.0194   H         1 1      0.0000
    12 HB       1.7838   2.0391  -1.3219   H         1 1      0.0000
    13 HA       2.5452   3.3392  -0.4081   H         1 1      0.0000
    14 H12B     1.4362   1.2433   0.7397   H         1 1      0.0000
    15 O1       1.4883  -2.0149   0.2346   O.3       1 1      0.0000
    16 H11      1.5097  -0.5528  -1.2222   H         1 1      0.0000
    17 OH1      1.4083  -2.6251  -0.5397   H         1 1      0.0000
    18 C10     -0.3009  -0.4145  -0.0875   C.ar      1 1      0.0000
    19 C9      -0.7851   0.8866  -0.0933   C.ar      1 1      0.0000
    20 C5      -1.2060  -1.4639  -0.0031   C.ar      1 1      0.0000
    21 C8      -2.1413   1.1394  -0.0145   C.ar      1 1      0.0000
    22 H9      -0.0891   1.7163  -0.1606   H         1 1      0.0000
    23 C6      -2.5646  -1.2244   0.0762   C.ar      1 1      0.0000
    24 H5      -0.8417  -2.4858   0.0007   H         1 1      0.0000
    25 C7      -3.0323   0.0807   0.0707   C.ar      1 1      0.0000
    26 H8      -2.5068   2.1609  -0.0193   H         1 1      0.0000
    27 H6      -3.2615  -2.0533   0.1425   H         1 1      0.0000
    28 NO      -4.3426   0.3183   0.1474   N.pl3     1 1      0.0000
    29 ON2     -5.1062  -0.5627   0.6171   O.2       1 1      0.0000
    30 ON1     -4.7974   1.4203  -0.2511   O.2       1 1      0.0000
    31 C15      4.3355  -1.7655  -0.1574   C.3       1 1      0.0000
    32 H15A     3.7657  -1.6236  -1.0733   H         1 1      0.0000
    33 H15C     5.3298  -2.1151  -0.4275   H         1 1      0.0000
    34 H15B     3.8496  -2.5441   0.4269   H         1 1      0.0000
@<TRIPOS>BOND
     1     1     2    1
     2     1    15    1
     3     1    16    1
     4     1    18    1
     5     2     3    1
     6     2     4    1
     7     2    14    1
     8     4     5    1
     9     4     8    2
    10     5     6    1
    11     5     7    1
    12     5    31    1
    13     8     9    1
    14     8    10    1
    15    10    11    1
    16    10    12    1
    17    10    13    1
    18    15    17    1
    19    18    19   ar
    20    18    20   ar
    21    19    21   ar
    22    19    22    1
    23    20    23   ar
    24    20    24    1
    25    21    25   ar
    26    21    26    1
    27    23    25   ar
    28    23    27    1
    29    25    28   un
    30    28    29   un
    31    28    30   un
    32    31    32    1
    33    31    33    1
    34    31    34    1
@<TRIPOS>SUBSTRUCTURE
     1 1           1 GROUP             0 ****  ****    0  
@<TRIPOS>MOLECULE
Molecule Name_00001_00001_00113
    34    34     1     0     0
SMALL
NO_CHARGES
****
Generated from the CSD

@<TRIPOS>ATOM
     1 C11      1.1604   0.6257   0.1123   C.3       1 1      0.0000
     2 C12      1.9064  -0.6822   0.3578   C.3       1 1      0.0000
     3 H12A     1.5633  -1.4319  -0.3656   H         1 1      0.0000
     4 C13      3.3936  -0.5348   0.2455   C.2       1 1      0.0000
     5 C14      4.0736  -1.2145  -0.9040   C.3       1 1      0.0000
     6 H14B     3.7044  -2.2445  -0.9819   H         1 1      0.0000
     7 H14A     5.1519  -1.2607  -0.7077   H         1 1      0.0000
     8 N        4.0853   0.1454   1.1373   N.pl3     1 1      0.0000
     9 HN       5.0956   0.1794   1.0021   H         1 1      0.0000
    10 C        3.5438   0.9602   2.2151   C.3       1 1      0.0000
    11 HC       4.3302   1.2556   2.9065   H         1 1      0.0000
    12 HB       3.0812   1.8637   1.8238   H         1 1      0.0000
    13 HA       2.7910   0.4086   2.7745   H         1 1      0.0000
    14 H12B     1.6598  -1.0509   1.3611   H         1 1      0.0000
    15 O1       1.6067   1.1744  -1.1250   O.3       1 1      0.0000
    16 H11      1.4004   1.3312   0.9228   H         1 1      0.0000
    17 OH1      1.5044   2.1579  -1.1044   H         1 1      0.0000
    18 C10     -0.3365   0.3943   0.0922   C.ar      1 1      0.0000
    19 C9      -1.1537   1.1252  -0.7596   C.ar      1 1      0.0000
    20 C5      -0.9162  -0.5565   0.9214   C.ar      1 1      0.0000
    21 C8      -2.5194   0.9165  -0.7850   C.ar      1 1      0.0000
    22 H9      -0.7139   1.8703  -1.4143   H         1 1      0.0000
    23 C6      -2.2805  -0.7747   0.9055   C.ar      1 1      0.0000
    24 H5      -0.2893  -1.1362   1.5909   H         1 1      0.0000
    25 C7      -3.0833  -0.0357   0.0501   C.ar      1 1      0.0000
    26 H8      -3.1471   1.4948  -1.4549   H         1 1      0.0000
    27 H6      -2.7213  -1.5203   1.5590   H         1 1      0.0000
    28 NO      -4.4010  -0.2414   0.0304   N.pl3     1 1      0.0000
    29 ON2     -4.9595  -0.7791   1.0198   O.2       1 1      0.0000
    30 ON1     -5.0677   0.1050  -0.9772   O.2       1 1      0.0000
    31 C15      3.8359  -0.4975  -2.2244   C.3       1 1      0.0000
    32 H15A     3.7415   0.5752  -2.0693   H         1 1      0.0000
    33 H15C     4.6623  -0.6693  -2.9108   H         1 1      0.0000
    34 H15B     2.9229  -0.8531  -2.6974   H         1 1      0.0000
@<TRIPOS>BOND
     1     1     2    1
     2     1    15    1
     3     1    16    1
     4     1    18    1
     5     2     3    1
     6     2     4    1
     7     2    14    1
     8     4     5    1
     9     4     8    2
    10     5     6    1
    11     5     7    1
    12     5    31    1
    13     8     9    1
    14     8    10    1
    15    10    11    1
    16    10    12    1
    17    10    13    1
    18    15    17    1
    19    18    19   ar
    20    18    20   ar
    21    19    21   ar
    22    19    22    1
    23    20    23   ar
    24    20    24    1
    25    21    25   ar
    26    21    26    1
    27    23    25   ar
    28    23    27    1
    29    25    28   un
    30    28    29   un
    31    28    30   un
    32    31    32    1
    33    31    33    1
    34    31    34    1
@<TRIPOS>SUBSTRUCTURE
     1 1           1 GROUP             0 ****  ****    0  
@<TRIPOS>MOLECULE
Molecule Name_00001_00001_00114
    34    34     1     0     0
SMALL
NO_CHARGES
****
Generated from the CSD

@<TRIPOS>ATOM
     1 C11      1.1601   0.6229   0.1086   C.3       1 1      0.0000
     2 C12      1.9077  -0.6836   0.3568   C.3       1 1      0.0000
     3 H12A     1.5672  -1.4345  -0.3665   H         1 1      0.0000
     4 C13      3.3949  -0.5339   0.2472   C.2       1 1      0.0000
     5 C14      4.0782  -1.2136  -0.9003   C.3       1 1      0.0000
     6 H14B     3.7108  -2.2443  -0.9780   H         1 1      0.0000
     7 H14A     5.1562  -1.2579  -0.7020   H         1 1      0.0000
     8 N        4.0838   0.1483   1.1397   N.pl3     1 1      0.0000
     9 HN       5.0943   0.1837   1.0064   H         1 1      0.0000
    10 C        3.5389   0.9632   2.2157   C.3       1 1      0.0000
    11 HC       4.3229   1.2576   2.9102   H         1 1      0.0000
    12 HB       3.0788   1.8674   1.8229   H         1 1      0.0000
    13 HA       2.7833   0.4123   2.7719   H         1 1      0.0000
    14 H12B     1.6597  -1.0517   1.3600   H         1 1      0.0000
    15 O1       1.6076   1.1709  -1.1286   O.3       1 1      0.0000
    16 H11      1.3977   1.3297   0.9187   H         1 1      0.0000
    17 OH1      1.5067   2.1545  -1.1080   H         1 1      0.0000
    18 C10     -0.3364   0.3891   0.0863   C.ar      1 1      0.0000
    19 C9      -0.9166  -0.5581   0.9192   C.ar      1 1      0.0000
    20 C5      -1.1540   1.1220  -0.7635   C.ar      1 1      0.0000
    21 C8      -2.2814  -0.7738   0.9059   C.ar      1 1      0.0000
    22 H9      -0.2899  -1.1368   1.5896   H         1 1      0.0000
    23 C6      -2.5201   0.9158  -0.7862   C.ar      1 1      0.0000
    24 H5      -0.7142   1.8667  -1.4186   H         1 1      0.0000
    25 C7      -3.0842  -0.0348   0.0507   C.ar      1 1      0.0000
    26 H8      -2.7224  -1.5176   1.5613   H         1 1      0.0000
    27 H6      -3.1480   1.4946  -1.4555   H         1 1      0.0000
    28 NO      -4.4023  -0.2387   0.0330   N.pl3     1 1      0.0000
    29 ON2     -5.0699   0.1074  -0.9741   O.2       1 1      0.0000
    30 ON1     -4.9602  -0.7745   1.0238   O.2       1 1      0.0000
    31 C15      3.8418  -0.4983  -2.2219   C.3       1 1      0.0000
    32 H15A     3.7456   0.5744  -2.0680   H         1 1      0.0000
    33 H15C     4.6697  -0.6696  -2.9067   H         1 1      0.0000
    34 H15B     2.9302  -0.8557  -2.6962   H         1 1      0.0000
@<TRIPOS>BOND
     1     1     2    1
     2     1    15    1
     3     1    16    1
     4     1    18    1
     5     2     3    1
     6     2     4    1
     7     2    14    1
     8     4     5    1
     9     4     8    2
    10     5     6    1
    11     5     7    1
    12     5    31    1
    13     8     9    1
    14     8    10    1
    15    10    11    1
    16    10    12    1
    17    10    13    1
    18    15    17    1
    19    18    19   ar
    20    18    20   ar
    21    19    21   ar
    22    19    22    1
    23    20    23   ar
    24    20    24    1
    25    21    25   ar
    26    21    26    1
    27    23    25   ar
    28    23    27    1
    29    25    28   un
    30    28    29   un
    31    28    30   un
    32    31    32    1
    33    31    33    1
    34    31    34    1
@<TRIPOS>SUBSTRUCTURE
     1 1           1 GROUP             0 ****  ****    0  
