@<TRIPOS>MOLECULE
Molecule Name_00001_00001
    34    34     1     0     0
SMALL
NO_CHARGES
****
Generated from the CSD

@<TRIPOS>ATOM
     1 C11      1.0800  -0.0625   0.6623   C.3       1 1      0.0000
     2 C12      1.7790   0.0701  -0.6872   C.3       1 1      0.0000
     3 H12A     1.5795   1.0673  -1.0980   H         1 1      0.0000
     4 C13      3.2606  -0.1385  -0.5992   C.2       1 1      0.0000
     5 C14      3.7625  -1.5501  -0.5681   C.3       1 1      0.0000
     6 H14B     3.4512  -2.0629  -1.4865   H         1 1      0.0000
     7 H14A     3.3052  -2.0759   0.2791   H         1 1      0.0000
     8 N        4.0945   0.8789  -0.5235   N.pl3     1 1      0.0000
     9 HN       5.0861   0.6512  -0.4524   H         1 1      0.0000
    10 C        3.7572   2.2878  -0.6649   C.3       1 1      0.0000
    11 HC       4.6293   2.8637  -0.9677   H         1 1      0.0000
    12 HB       2.9828   2.4282  -1.4158   H         1 1      0.0000
    13 HA       3.3940   2.6938   0.2769   H         1 1      0.0000
    14 H12B     1.3564  -0.6663  -1.3819   H         1 1      0.0000
    15 O1       1.4792   1.0295   1.4865   O.3       1 1      0.0000
    16 H11      1.3975  -1.0033   1.1380   H         1 1      0.0000
    17 OH1      1.0478   0.9474   2.3727   H         1 1      0.0000
    18 C10     -0.4245  -0.0859   0.4875   C.ar      1 1      0.0000
    19 C9      -1.1090  -1.2900   0.3981   C.ar      1 1      0.0000
    20 C5      -1.1487   1.0962   0.4190   C.ar      1 1      0.0000
    21 C8      -2.4833  -1.3236   0.2416   C.ar      1 1      0.0000
    22 H9      -0.5562  -2.2221   0.4518   H         1 1      0.0000
    23 C6      -2.5233   1.0869   0.2627   C.ar      1 1      0.0000
    24 H5      -0.6271   2.0450   0.4892   H         1 1      0.0000
    25 C7      -3.1663  -0.1287   0.1765   C.ar      1 1      0.0000
    26 H8      -3.0110  -2.2691   0.1718   H         1 1      0.0000
    27 H6      -3.0822   2.0154   0.2093   H         1 1      0.0000
    28 NO      -4.6252  -0.1515   0.0101   N.pl3     1 1      0.0000
    29 ON2     -5.2174   0.9160  -0.0460   O.2       1 1      0.0000
    30 ON1     -5.1817  -1.2369  -0.0648   O.2       1 1      0.0000
    31 C15      5.2768  -1.6232  -0.4434   C.3       1 1      0.0000
    32 H15A     5.6122  -1.1401   0.4719   H         1 1      0.0000
    33 H15C     5.6126  -2.6579  -0.4233   H         1 1      0.0000
    34 H15B     5.7574  -1.1272  -1.2841   H         1 1      0.0000
@<TRIPOS>BOND
     1     1     2    1
     2     1    15    1
     3     1    16    1
     4     1    18    1
     5     2     3    1
     6     2     4    1
     7     2    14    1
     8     4     5    1
     9     4     8    2
    10     5     6    1
    11     5     7    1
    12     5    31    1
    13     8     9    1
    14     8    10    1
    15    10    11    1
    16    10    12    1
    17    10    13    1
    18    15    17    1
    19    18    19   ar
    20    18    20   ar
    21    19    21   ar
    22    19    22    1
    23    20    23   ar
    24    20    24    1
    25    21    25   ar
    26    21    26    1
    27    23    25   ar
    28    23    27    1
    29    25    28   un
    30    28    29   un
    31    28    30   un
    32    31    32    1
    33    31    33    1
    34    31    34    1
@<TRIPOS>SUBSTRUCTURE
     1 1           1 GROUP             0 ****  ****    0  
