@<TRIPOS>MOLECULE
Molecule Name_00001
    34    34     1     0     0
SMALL
NO_CHARGES
****
Generated from the CSD

@<TRIPOS>ATOM
     1 C11      0.9539  -0.1524   0.6803   C.3       1 1      0.0000
     2 C12      1.7600  -0.2031  -0.6567   C.3       1 1      0.0000
     3 H12A     1.3496   0.5399  -1.3483   H         1 1      0.0000
     4 C13      3.2305   0.0042  -0.4097   C.2       1 1      0.0000
     5 C14      4.0535  -1.1917  -0.0277   C.3       1 1      0.0000
     6 H14A     3.8895  -1.9580  -0.8011   H         1 1      0.0000
     7 H14B     3.5803  -1.5805   0.8868   H         1 1      0.0000
     8 N        3.7976   1.1759  -0.5137   N.pl3     1 1      0.0000
     9 HN       4.8003   1.2224  -0.3059   H         1 1      0.0000
    10 C        3.1738   2.4830  -0.8749   C.3       1 1      0.0000
    11 HA       3.8982   3.0517  -1.4626   H         1 1      0.0000
    12 HB       2.2736   2.3206  -1.4681   H         1 1      0.0000
    13 HC       2.9304   3.0344   0.0389   H         1 1      0.0000
    14 H12B     1.6174  -1.1925  -1.0979   H         1 1      0.0000
    15 O1       1.3629  -1.3973   1.3715   O.3       1 1      0.0000
    16 H11      1.2691   0.7146   1.2728   H         1 1      0.0000
    17 OH1      0.8348  -1.5357   2.2020   H         1 1      0.0000
    18 C10     -0.5348  -0.0836   0.4098   C.ar      1 1      0.0000
    19 C5      -1.1971   1.1548   0.4519   C.ar      1 1      0.0000
    20 C9      -1.2550  -1.2553   0.1353   C.ar      1 1      0.0000
    21 C6      -2.5706   1.2234   0.2289   C.ar      1 1      0.0000
    22 H5      -0.6379   2.0659   0.6393   H         1 1      0.0000
    23 C8      -2.6335  -1.1987  -0.0787   C.ar      1 1      0.0000
    24 H8      -0.7469  -2.2140   0.0802   H         1 1      0.0000
    25 C7      -3.2673   0.0411  -0.0261   C.ar      1 1      0.0000
    26 H6      -3.1017   2.1664   0.2509   H         1 1      0.0000
    27 H7      -3.2100  -2.0898  -0.2912   H         1 1      0.0000
    28 NO      -4.7225   0.1068  -0.2523   N.pl3     1 1      0.0000
    29 ON2     -5.3421  -0.9954  -0.4853   O.2       1 1      0.0000
    30 ON1     -5.2853   1.2618  -0.2050   O.2       1 1      0.0000
    31 C15      5.5575  -0.9549   0.1841   C.3       1 1      0.0000
    32 H15C     5.7518  -0.2604   1.0109   H         1 1      0.0000
    33 H15A     6.0338  -1.9025   0.4531   H         1 1      0.0000
    34 H15B     6.0545  -0.5995  -0.7274   H         1 1      0.0000
@<TRIPOS>BOND
     1     1     2    1
     2     1    15    1
     3     1    16    1
     4     1    18    1
     5     2     3    1
     6     2     4    1
     7     2    14    1
     8     4     5    1
     9     4     8    2
    10     5     6    1
    11     5     7    1
    12     5    31    1
    13     8     9    1
    14     8    10    1
    15    10    11    1
    16    10    12    1
    17    10    13    1
    18    15    17    1
    19    18    19   ar
    20    18    20   ar
    21    19    21   ar
    22    19    22    1
    23    20    23   ar
    24    20    24    1
    25    21    25   ar
    26    21    26    1
    27    23    25   ar
    28    23    27    1
    29    25    28    1
    30    28    29   un
    31    28    30   un
    32    31    32    1
    33    31    33    1
    34    31    34    1
@<TRIPOS>SUBSTRUCTURE
     1 1           1 GROUP             0 ****  ****    0  
@<TRIPOS>MOLECULE
Molecule Name_00002
    34    34     1     0     0
SMALL
NO_CHARGES
****
Generated from the CSD

@<TRIPOS>ATOM
     1 C11      0.9370  -0.0166  -0.6786   C.3       1 1      0.0000
     2 C12      1.7476   0.0172   0.6563   C.3       1 1      0.0000
     3 H12A     1.3550  -0.7506   1.3309   H         1 1      0.0000
     4 C13      3.2209  -0.1545   0.3988   C.2       1 1      0.0000
     5 C14      3.7434  -1.5496   0.2147   C.3       1 1      0.0000
     6 H14A     3.1673  -2.0055  -0.6054   H         1 1      0.0000
     7 H14B     3.4444  -2.0866   1.1278   H         1 1      0.0000
     8 N        4.0415   0.8595   0.3360   N.pl3     1 1      0.0000
     9 HN       5.0306   0.6424   0.1774   H         1 1      0.0000
    10 C        3.7385   2.3129   0.4903   C.3       1 1      0.0000
    11 HA       4.3886   2.8673  -0.1906   H         1 1      0.0000
    12 HB       2.6965   2.5103   0.2375   H         1 1      0.0000
    13 HC       3.9423   2.6192   1.5213   H         1 1      0.0000
    14 H12B     1.5872   0.9925   1.1223   H         1 1      0.0000
    15 O1       1.3722   1.2181  -1.3721   O.3       1 1      0.0000
    16 H11      1.2312  -0.8911  -1.2710   H         1 1      0.0000
    17 OH1      0.8451   1.3675  -2.2014   H         1 1      0.0000
    18 C10     -0.5520  -0.0518  -0.4041   C.ar      1 1      0.0000
    19 C5      -1.2421  -1.2750  -0.4434   C.ar      1 1      0.0000
    20 C9      -1.2451   1.1361  -0.1290   C.ar      1 1      0.0000
    21 C6      -2.6163  -1.3125  -0.2167   C.ar      1 1      0.0000
    22 H5      -0.7040  -2.1986  -0.6312   H         1 1      0.0000
    23 C8      -2.6239   1.1106   0.0886   C.ar      1 1      0.0000
    24 H8      -0.7154   2.0832  -0.0762   H         1 1      0.0000
    25 C7      -3.2856  -0.1147   0.0389   C.ar      1 1      0.0000
    26 H6      -3.1684  -2.2434  -0.2364   H         1 1      0.0000
    27 H7      -3.1797   2.0147   0.3017   H         1 1      0.0000
    28 NO      -4.7412  -0.1474   0.2690   N.pl3     1 1      0.0000
    29 ON2     -5.3353   0.9687   0.5024   O.2       1 1      0.0000
    30 ON1     -5.3300  -1.2896   0.2242   O.2       1 1      0.0000
    31 C15      5.2520  -1.6928  -0.0437   C.3       1 1      0.0000
    32 H15C     5.8500  -1.3257   0.7997   H         1 1      0.0000
    33 H15A     5.4950  -2.7531  -0.1615   H         1 1      0.0000
    34 H15B     5.5642  -1.1927  -0.9692   H         1 1      0.0000
@<TRIPOS>BOND
     1     1     2    1
     2     1    15    1
     3     1    16    1
     4     1    18    1
     5     2     3    1
     6     2     4    1
     7     2    14    1
     8     4     5    1
     9     4     8    2
    10     5     6    1
    11     5     7    1
    12     5    31    1
    13     8     9    1
    14     8    10    1
    15    10    11    1
    16    10    12    1
    17    10    13    1
    18    15    17    1
    19    18    19   ar
    20    18    20   ar
    21    19    21   ar
    22    19    22    1
    23    20    23   ar
    24    20    24    1
    25    21    25   ar
    26    21    26    1
    27    23    25   ar
    28    23    27    1
    29    25    28    1
    30    28    29   un
    31    28    30   un
    32    31    32    1
    33    31    33    1
    34    31    34    1
@<TRIPOS>SUBSTRUCTURE
     1 1           1 GROUP             0 ****  ****    0  
@<TRIPOS>MOLECULE
Molecule Name_00003
    34    34     1     0     0
SMALL
NO_CHARGES
****
Generated from the CSD

@<TRIPOS>ATOM
     1 C11      0.9987   0.0388   0.8029   C.3       1 1      0.0000
     2 C12      1.8575  -0.0774  -0.4968   C.3       1 1      0.0000
     3 H12A     1.4445   0.5930  -1.2575   H         1 1      0.0000
     4 C13      3.3077   0.2111  -0.2142   C.2       1 1      0.0000
     5 C14      4.1646  -0.9178   0.2803   C.3       1 1      0.0000
     6 H14A     3.6579  -1.3485   1.1578   H         1 1      0.0000
     7 H14B     5.0752  -0.4342   0.6654   H         1 1      0.0000
     8 N        3.8292   1.3967  -0.3818   N.pl3     1 1      0.0000
     9 HN       4.8205   1.5017  -0.1432   H         1 1      0.0000
    10 C        3.1658   2.6466  -0.8566   C.3       1 1      0.0000
    11 HA       3.8876   3.2043  -1.4579   H         1 1      0.0000
    12 HB       2.2961   2.4037  -1.4677   H         1 1      0.0000
    13 HC       2.8654   3.2491   0.0065   H         1 1      0.0000
    14 H12B     1.7721  -1.1025  -0.8655   H         1 1      0.0000
    15 O1       1.4345  -1.1287   1.6040   O.3       1 1      0.0000
    16 H11      1.2527   0.9627   1.3359   H         1 1      0.0000
    17 OH1      0.8811  -1.2270   2.4238   H         1 1      0.0000
    18 C10     -0.4799   0.0174   0.4755   C.ar      1 1      0.0000
    19 C5      -1.1967   1.2232   0.3966   C.ar      1 1      0.0000
    20 C9      -1.1373  -1.2041   0.2691   C.ar      1 1      0.0000
    21 C6      -2.5622   1.2106   0.1207   C.ar      1 1      0.0000
    22 H5      -0.6854   2.1711   0.5311   H         1 1      0.0000
    23 C8      -2.5077  -1.2283   0.0029   C.ar      1 1      0.0000
    24 H8      -0.5862  -2.1396   0.3077   H         1 1      0.0000
    25 C7      -3.1964  -0.0188  -0.0648   C.ar      1 1      0.0000
    26 H6      -3.1342   2.1268   0.0495   H         1 1      0.0000
    27 H7      -3.0362  -2.1590  -0.1589   H         1 1      0.0000
    28 NO      -4.6432  -0.0385  -0.3465   N.pl3     1 1      0.0000
    29 ON2     -5.2048  -1.1829  -0.5135   O.2       1 1      0.0000
    30 ON1     -5.2572   1.0894  -0.4102   O.2       1 1      0.0000
    31 C15      4.5091  -2.0187  -0.7357   C.3       1 1      0.0000
    32 H15C     5.0929  -1.6309  -1.5798   H         1 1      0.0000
    33 H15A     5.1307  -2.7745  -0.2464   H         1 1      0.0000
    34 H15B     3.6153  -2.5367  -1.1059   H         1 1      0.0000
@<TRIPOS>BOND
     1     1     2    1
     2     1    15    1
     3     1    16    1
     4     1    18    1
     5     2     3    1
     6     2     4    1
     7     2    14    1
     8     4     5    1
     9     4     8    2
    10     5     6    1
    11     5     7    1
    12     5    31    1
    13     8     9    1
    14     8    10    1
    15    10    11    1
    16    10    12    1
    17    10    13    1
    18    15    17    1
    19    18    19   ar
    20    18    20   ar
    21    19    21   ar
    22    19    22    1
    23    20    23   ar
    24    20    24    1
    25    21    25   ar
    26    21    26    1
    27    23    25   ar
    28    23    27    1
    29    25    28    1
    30    28    29   un
    31    28    30   un
    32    31    32    1
    33    31    33    1
    34    31    34    1
@<TRIPOS>SUBSTRUCTURE
     1 1           1 GROUP             0 ****  ****    0  
@<TRIPOS>MOLECULE
Molecule Name_00004
    34    34     1     0     0
SMALL
NO_CHARGES
****
Generated from the CSD

@<TRIPOS>ATOM
     1 C11      1.0665  -0.0083  -0.5748   C.3       1 1      0.0000
     2 C12      1.8285   0.1875   0.7748   C.3       1 1      0.0000
     3 H12A     1.4363  -0.5214   1.5112   H         1 1      0.0000
     4 C13      3.3144   0.0413   0.5829   C.2       1 1      0.0000
     5 C14      3.8876  -1.3461   0.5718   C.3       1 1      0.0000
     6 H14A     3.5255  -1.8533   1.4794   H         1 1      0.0000
     7 H14B     4.9697  -1.2064   0.7159   H         1 1      0.0000
     8 N        4.1036   1.0708   0.4322   N.pl3     1 1      0.0000
     9 HN       5.1041   0.8730   0.3289   H         1 1      0.0000
    10 C        3.7489   2.5205   0.4139   C.3       1 1      0.0000
    11 HA       4.3817   3.0135  -0.3279   H         1 1      0.0000
    12 HB       2.7016   2.6496   0.1398   H         1 1      0.0000
    13 HC       3.9376   2.9534   1.4015   H         1 1      0.0000
    14 H12B     1.6218   1.1987   1.1337   H         1 1      0.0000
    15 O1       1.4904   1.1623  -1.3777   O.3       1 1      0.0000
    16 H11      1.4060  -0.9289  -1.0641   H         1 1      0.0000
    17 OH1      0.9888   1.2094  -2.2344   H         1 1      0.0000
    18 C10     -0.4297  -0.0627  -0.3459   C.ar      1 1      0.0000
    19 C5      -1.0829  -1.3049  -0.2808   C.ar      1 1      0.0000
    20 C9      -1.1654   1.1243  -0.2171   C.ar      1 1      0.0000
    21 C6      -2.4625  -1.3629  -0.0956   C.ar      1 1      0.0000
    22 H5      -0.5125  -2.2253  -0.3551   H         1 1      0.0000
    23 C8      -2.5498   1.0773  -0.0423   C.ar      1 1      0.0000
    24 H8      -0.6651   2.0883  -0.2454   H         1 1      0.0000
    25 C7      -3.1742  -0.1672   0.0136   C.ar      1 1      0.0000
    26 H6      -2.9869  -2.3080  -0.0368   H         1 1      0.0000
    27 H7      -3.1382   1.9802   0.0585   H         1 1      0.0000
    28 NO      -4.6355  -0.2226   0.1990   N.pl3     1 1      0.0000
    29 ON2     -5.2689   0.8920   0.2970   O.2       1 1      0.0000
    30 ON1     -5.1896  -1.3816   0.2535   O.2       1 1      0.0000
    31 C15      3.6000  -2.2012  -0.6729   C.3       1 1      0.0000
    32 H15C     3.8870  -1.6882  -1.5992   H         1 1      0.0000
    33 H15A     4.1983  -3.1160  -0.6237   H         1 1      0.0000
    34 H15B     2.5496  -2.5137  -0.7285   H         1 1      0.0000
@<TRIPOS>BOND
     1     1     2    1
     2     1    15    1
     3     1    16    1
     4     1    18    1
     5     2     3    1
     6     2     4    1
     7     2    14    1
     8     4     5    1
     9     4     8    2
    10     5     6    1
    11     5     7    1
    12     5    31    1
    13     8     9    1
    14     8    10    1
    15    10    11    1
    16    10    12    1
    17    10    13    1
    18    15    17    1
    19    18    19   ar
    20    18    20   ar
    21    19    21   ar
    22    19    22    1
    23    20    23   ar
    24    20    24    1
    25    21    25   ar
    26    21    26    1
    27    23    25   ar
    28    23    27    1
    29    25    28    1
    30    28    29   un
    31    28    30   un
    32    31    32    1
    33    31    33    1
    34    31    34    1
@<TRIPOS>SUBSTRUCTURE
     1 1           1 GROUP             0 ****  ****    0  
@<TRIPOS>MOLECULE
Molecule Name_00005
    34    34     1     0     0
SMALL
NO_CHARGES
****
Generated from the CSD

@<TRIPOS>ATOM
     1 C11      0.9840   0.1971  -0.8011   C.3       1 1      0.0000
     2 C12      1.8547   0.0406   0.4863   C.3       1 1      0.0000
     3 H12A     1.5172  -0.8420   1.0393   H         1 1      0.0000
     4 C13      3.3189  -0.0312   0.1434   C.2       1 1      0.0000
     5 C14      3.8737  -1.3565  -0.2916   C.3       1 1      0.0000
     6 H14A     4.8458  -1.1593  -0.7695   H         1 1      0.0000
     7 H14B     3.2042  -1.6926  -1.0979   H         1 1      0.0000
     8 N        4.1048   1.0091   0.2165   N.pl3     1 1      0.0000
     9 HN       5.0915   0.8581  -0.0167   H         1 1      0.0000
    10 C        3.7660   2.4048   0.6228   C.3       1 1      0.0000
    11 HA       4.3666   3.0878   0.0174   H         1 1      0.0000
    12 HB       2.7079   2.6022   0.4494   H         1 1      0.0000
    13 HC       4.0085   2.5444   1.6811   H         1 1      0.0000
    14 H12B     1.6871   0.9190   1.1143   H         1 1      0.0000
    15 O1       1.3490   1.5446  -1.2969   O.3       1 1      0.0000
    16 H11      1.2762  -0.5561  -1.5424   H         1 1      0.0000
    17 OH1      0.7796   1.8090  -2.0673   H         1 1      0.0000
    18 C10     -0.4889   0.0617  -0.4753   C.ar      1 1      0.0000
    19 C5      -1.1431  -1.1632  -0.6890   C.ar      1 1      0.0000
    20 C9      -1.2036   1.1612   0.0219   C.ar      1 1      0.0000
    21 C6      -2.5034  -1.2888  -0.4155   C.ar      1 1      0.0000
    22 H5      -0.5870  -2.0225  -1.0500   H         1 1      0.0000
    23 C8      -2.5694   1.0489   0.2888   C.ar      1 1      0.0000
    24 H8      -0.7007   2.1058   0.2097   H         1 1      0.0000
    25 C7      -3.1956  -0.1753   0.0632   C.ar      1 1      0.0000
    26 H6      -3.0277  -2.2236  -0.5670   H         1 1      0.0000
    27 H7      -3.1414   1.8841   0.6721   H         1 1      0.0000
    28 NO      -4.6373  -0.2998   0.3443   N.pl3     1 1      0.0000
    29 ON2     -5.2530   0.7396   0.7845   O.2       1 1      0.0000
    30 ON1     -5.1930  -1.4401   0.1344   O.2       1 1      0.0000
    31 C15      4.0176  -2.4343   0.7950   C.3       1 1      0.0000
    32 H15C     3.0488  -2.7140   1.2273   H         1 1      0.0000
    33 H15A     4.4331  -3.3412   0.3456   H         1 1      0.0000
    34 H15B     4.7090  -2.1315   1.5915   H         1 1      0.0000
@<TRIPOS>BOND
     1     1     2    1
     2     1    15    1
     3     1    16    1
     4     1    18    1
     5     2     3    1
     6     2     4    1
     7     2    14    1
     8     4     5    1
     9     4     8    2
    10     5     6    1
    11     5     7    1
    12     5    31    1
    13     8     9    1
    14     8    10    1
    15    10    11    1
    16    10    12    1
    17    10    13    1
    18    15    17    1
    19    18    19   ar
    20    18    20   ar
    21    19    21   ar
    22    19    22    1
    23    20    23   ar
    24    20    24    1
    25    21    25   ar
    26    21    26    1
    27    23    25   ar
    28    23    27    1
    29    25    28    1
    30    28    29   un
    31    28    30   un
    32    31    32    1
    33    31    33    1
    34    31    34    1
@<TRIPOS>SUBSTRUCTURE
     1 1           1 GROUP             0 ****  ****    0  
@<TRIPOS>MOLECULE
Molecule Name_00006
    34    34     1     0     0
SMALL
NO_CHARGES
****
Generated from the CSD

@<TRIPOS>ATOM
     1 C11      1.2107  -0.9421   1.5901   C.3       1 1      0.0000
     2 C12      2.2991  -1.1921   0.4978   C.3       1 1      0.0000
     3 H12A     1.9788  -2.0218  -0.1407   H         1 1      0.0000
     4 C13      2.5689   0.0601  -0.2931   C.2       1 1      0.0000
     5 C14      3.5036   1.0755   0.2972   C.3       1 1      0.0000
     6 H14A     4.4521   0.5580   0.5089   H         1 1      0.0000
     7 H14B     3.0699   1.3228   1.2781   H         1 1      0.0000
     8 N        2.0186   0.2833  -1.4562   N.pl3     1 1      0.0000
     9 HN       2.2464   1.1737  -1.9102   H         1 1      0.0000
    10 C        1.0692  -0.5807  -2.2178   C.3       1 1      0.0000
    11 HA       1.2932  -0.4721  -3.2817   H         1 1      0.0000
    12 HB       1.1916  -1.6242  -1.9266   H         1 1      0.0000
    13 HC       0.0432  -0.2517  -2.0245   H         1 1      0.0000
    14 H12B     3.2209  -1.4894   1.0037   H         1 1      0.0000
    15 O1       1.1371  -2.2402   2.3003   O.3       1 1      0.0000
    16 H11      1.5512  -0.1649   2.2845   H         1 1      0.0000
    17 OH1      0.3969  -2.2439   2.9635   H         1 1      0.0000
    18 C10     -0.1038  -0.5344   0.9577   C.ar      1 1      0.0000
    19 C5      -0.4574   0.8238   0.8924   C.ar      1 1      0.0000
    20 C9      -0.9752  -1.5111   0.4540   C.ar      1 1      0.0000
    21 C6      -1.6759   1.2052   0.3349   C.ar      1 1      0.0000
    22 H5       0.2261   1.5832   1.2587   H         1 1      0.0000
    23 C8      -2.2034  -1.1401  -0.0966   C.ar      1 1      0.0000
    24 H8      -0.7001  -2.5617   0.4817   H         1 1      0.0000
    25 C7      -2.5325   0.2131  -0.1446   C.ar      1 1      0.0000
    26 H6      -1.9676   2.2455   0.2687   H         1 1      0.0000
    27 H7      -2.8922  -1.8763  -0.4906   H         1 1      0.0000
    28 NO      -3.8276   0.6105  -0.7259   N.pl3     1 1      0.0000
    29 ON2     -4.5993  -0.3214  -1.1607   O.2       1 1      0.0000
    30 ON1     -4.1078   1.8647  -0.7651   O.2       1 1      0.0000
    31 C15      3.7570   2.3445  -0.5326   C.3       1 1      0.0000
    32 H15C     2.8396   2.9270  -0.6833   H         1 1      0.0000
    33 H15A     4.4533   2.9920   0.0087   H         1 1      0.0000
    34 H15B     4.2217   2.1214  -1.5013   H         1 1      0.0000
@<TRIPOS>BOND
     1     1     2    1
     2     1    15    1
     3     1    16    1
     4     1    18    1
     5     2     3    1
     6     2     4    1
     7     2    14    1
     8     4     5    1
     9     4     8    2
    10     5     6    1
    11     5     7    1
    12     5    31    1
    13     8     9    1
    14     8    10    1
    15    10    11    1
    16    10    12    1
    17    10    13    1
    18    15    17    1
    19    18    19   ar
    20    18    20   ar
    21    19    21   ar
    22    19    22    1
    23    20    23   ar
    24    20    24    1
    25    21    25   ar
    26    21    26    1
    27    23    25   ar
    28    23    27    1
    29    25    28    1
    30    28    29   un
    31    28    30   un
    32    31    32    1
    33    31    33    1
    34    31    34    1
@<TRIPOS>SUBSTRUCTURE
     1 1           1 GROUP             0 ****  ****    0  
@<TRIPOS>MOLECULE
Molecule Name_00007
    34    34     1     0     0
SMALL
NO_CHARGES
****
Generated from the CSD

@<TRIPOS>ATOM
     1 C11      1.1367   0.4825   1.7234   C.3       1 1      0.0000
     2 C12      2.2728  -0.3996   1.1140   C.3       1 1      0.0000
     3 H12A     2.0203  -1.4551   1.2584   H         1 1      0.0000
     4 C13      2.4987  -0.0643  -0.3362   C.2       1 1      0.0000
     5 C14      1.7022  -0.8160  -1.3627   C.3       1 1      0.0000
     6 H14A     0.6391  -0.6825  -1.1091   H         1 1      0.0000
     7 H14B     1.9262  -1.8769  -1.1735   H         1 1      0.0000
     8 N        3.3560   0.8441  -0.7173   N.pl3     1 1      0.0000
     9 HN       3.4559   0.9881  -1.7273   H         1 1      0.0000
    10 C        4.2431   1.6986   0.1257   C.3       1 1      0.0000
    11 HA       4.3205   2.6784  -0.3514   H         1 1      0.0000
    12 HB       3.8190   1.8140   1.1234   H         1 1      0.0000
    13 HC       5.2361   1.2421   0.1871   H         1 1      0.0000
    14 H12B     3.1924  -0.1920   1.6664   H         1 1      0.0000
    15 O1       1.1196   0.0782   3.1485   O.3       1 1      0.0000
    16 H11      1.4068   1.5424   1.6478   H         1 1      0.0000
    17 OH1      0.3601   0.5001   3.6312   H         1 1      0.0000
    18 C10     -0.1792   0.2298   1.0173   C.ar      1 1      0.0000
    19 C5      -0.6357   1.1339   0.0435   C.ar      1 1      0.0000
    20 C9      -0.9501  -0.8945   1.3469   C.ar      1 1      0.0000
    21 C6      -1.8569   0.9219  -0.5926   C.ar      1 1      0.0000
    22 H5      -0.0294   1.9911  -0.2313   H         1 1      0.0000
    23 C8      -2.1804  -1.1101   0.7232   C.ar      1 1      0.0000
    24 H8      -0.5945  -1.6094   2.0836   H         1 1      0.0000
    25 C7      -2.6128  -0.1957  -0.2353   C.ar      1 1      0.0000
    26 H6      -2.2267   1.6015  -1.3498   H         1 1      0.0000
    27 H7      -2.7928  -1.9701   0.9621   H         1 1      0.0000
    28 NO      -3.9106  -0.4190  -0.8977   N.pl3     1 1      0.0000
    29 ON2     -4.5886  -1.4552  -0.5516   O.2       1 1      0.0000
    30 ON1     -4.2869   0.4342  -1.7829   O.2       1 1      0.0000
    31 C15      1.9538  -0.4503  -2.8345   C.3       1 1      0.0000
    32 H15C     2.9873  -0.6579  -3.1386   H         1 1      0.0000
    33 H15A     1.3110  -1.0663  -3.4705   H         1 1      0.0000
    34 H15B     1.7032   0.5957  -3.0513   H         1 1      0.0000
@<TRIPOS>BOND
     1     1     2    1
     2     1    15    1
     3     1    16    1
     4     1    18    1
     5     2     3    1
     6     2     4    1
     7     2    14    1
     8     4     5    1
     9     4     8    2
    10     5     6    1
    11     5     7    1
    12     5    31    1
    13     8     9    1
    14     8    10    1
    15    10    11    1
    16    10    12    1
    17    10    13    1
    18    15    17    1
    19    18    19   ar
    20    18    20   ar
    21    19    21   ar
    22    19    22    1
    23    20    23   ar
    24    20    24    1
    25    21    25   ar
    26    21    26    1
    27    23    25   ar
    28    23    27    1
    29    25    28    1
    30    28    29   un
    31    28    30   un
    32    31    32    1
    33    31    33    1
    34    31    34    1
@<TRIPOS>SUBSTRUCTURE
     1 1           1 GROUP             0 ****  ****    0  
@<TRIPOS>MOLECULE
Molecule Name_00008
    34    34     1     0     0
SMALL
NO_CHARGES
****
Generated from the CSD

@<TRIPOS>ATOM
     1 C11      0.9413  -0.4641  -0.5639   C.3       1 1      0.0000
     2 C12      1.7189   0.4208   0.4620   C.3       1 1      0.0000
     3 H12A     1.3175   0.2398   1.4645   H         1 1      0.0000
     4 C13      3.1996   0.1591   0.3888   C.2       1 1      0.0000
     5 C14      3.6670  -1.2635   0.4935   C.3       1 1      0.0000
     6 H14A     3.1628  -1.8295  -0.3050   H         1 1      0.0000
     7 H14B     3.2413  -1.6324   1.4391   H         1 1      0.0000
     8 N        4.0719   1.1199   0.2428   N.pl3     1 1      0.0000
     9 HN       5.0596   0.8463   0.2246   H         1 1      0.0000
    10 C        3.8285   2.5875   0.1217   C.3       1 1      0.0000
    11 HA       4.6574   3.0217  -0.4423   H         1 1      0.0000
    12 HB       2.8937   2.7728  -0.4078   H         1 1      0.0000
    13 HC       3.7923   3.0337   1.1207   H         1 1      0.0000
    14 H12B     1.5376   1.4680   0.2079   H         1 1      0.0000
    15 O1       1.3967   0.0550  -1.8746   O.3       1 1      0.0000
    16 H11      1.2476  -1.5117  -0.4598   H         1 1      0.0000
    17 OH1      0.8906  -0.3634  -2.6207   H         1 1      0.0000
    18 C10     -0.5542  -0.3372  -0.3605   C.ar      1 1      0.0000
    19 C5      -1.1476   0.9352  -0.3071   C.ar      1 1      0.0000
    20 C9      -1.3435  -1.4863  -0.2076   C.ar      1 1      0.0000
    21 C6      -2.5189   1.0611  -0.0952   C.ar      1 1      0.0000
    22 H5      -0.5430   1.8251  -0.4501   H         1 1      0.0000
    23 C8      -2.7168  -1.3706   0.0161   C.ar      1 1      0.0000
    24 H8      -0.8957  -2.4743  -0.2685   H         1 1      0.0000
    25 C7      -3.2799  -0.0972   0.0701   C.ar      1 1      0.0000
    26 H6      -2.9993   2.0303  -0.0557   H         1 1      0.0000
    27 H7      -3.3456  -2.2433   0.1379   H         1 1      0.0000
    28 NO      -4.7295   0.0307   0.3050   N.pl3     1 1      0.0000
    29 ON2     -5.4091  -1.0505   0.4543   O.2       1 1      0.0000
    30 ON1     -5.2284   1.2150   0.3451   O.2       1 1      0.0000
    31 C15      5.1856  -1.4963   0.4411   C.3       1 1      0.0000
    32 H15C     5.7044  -1.0147   1.2793   H         1 1      0.0000
    33 H15A     5.3855  -2.5688   0.5242   H         1 1      0.0000
    34 H15B     5.6238  -1.1662  -0.5092   H         1 1      0.0000
@<TRIPOS>BOND
     1     1     2    1
     2     1    15    1
     3     1    16    1
     4     1    18    1
     5     2     3    1
     6     2     4    1
     7     2    14    1
     8     4     5    1
     9     4     8    2
    10     5     6    1
    11     5     7    1
    12     5    31    1
    13     8     9    1
    14     8    10    1
    15    10    11    1
    16    10    12    1
    17    10    13    1
    18    15    17    1
    19    18    19   ar
    20    18    20   ar
    21    19    21   ar
    22    19    22    1
    23    20    23   ar
    24    20    24    1
    25    21    25   ar
    26    21    26    1
    27    23    25   ar
    28    23    27    1
    29    25    28    1
    30    28    29   un
    31    28    30   un
    32    31    32    1
    33    31    33    1
    34    31    34    1
@<TRIPOS>SUBSTRUCTURE
     1 1           1 GROUP             0 ****  ****    0  
@<TRIPOS>MOLECULE
Molecule Name_00009
    34    34     1     0     0
SMALL
NO_CHARGES
****
Generated from the CSD

@<TRIPOS>ATOM
     1 C11      0.9516  -0.2736   0.7467   C.3       1 1      0.0000
     2 C12      1.7475  -0.2401  -0.5971   C.3       1 1      0.0000
     3 H12A     1.2815   0.4881  -1.2689   H         1 1      0.0000
     4 C13      3.2026   0.0614  -0.3563   C.2       1 1      0.0000
     5 C14      3.9327  -0.7683   0.6595   C.3       1 1      0.0000
     6 H14A     3.7631  -1.8241   0.3973   H         1 1      0.0000
     7 H14B     3.3913  -0.6014   1.6031   H         1 1      0.0000
     8 N        3.8337   1.0106  -0.9937   N.pl3     1 1      0.0000
     9 HN       4.8181   1.1552  -0.7473   H         1 1      0.0000
    10 C        3.3059   1.9459  -2.0303   C.3       1 1      0.0000
    11 HA       4.1014   2.1286  -2.7565   H         1 1      0.0000
    12 HB       2.4479   1.5030  -2.5366   H         1 1      0.0000
    13 HC       3.0195   2.8900  -1.5561   H         1 1      0.0000
    14 H12B     1.6685  -1.2271  -1.0591   H         1 1      0.0000
    15 O1       1.3490  -1.5692   1.3452   O.3       1 1      0.0000
    16 H11      1.2825   0.5455   1.3962   H         1 1      0.0000
    17 OH1      0.8251  -1.7591   2.1681   H         1 1      0.0000
    18 C10     -0.5378  -0.1668   0.4936   C.ar      1 1      0.0000
    19 C5      -1.1546  -1.0291  -0.4284   C.ar      1 1      0.0000
    20 C9      -1.2978   0.8024   1.1644   C.ar      1 1      0.0000
    21 C6      -2.5196  -0.9207  -0.6854   C.ar      1 1      0.0000
    22 H5      -0.5735  -1.7964  -0.9301   H         1 1      0.0000
    23 C8      -2.6642   0.9264   0.9059   C.ar      1 1      0.0000
    24 H8      -0.8327   1.4591   1.8943   H         1 1      0.0000
    25 C7      -3.2506   0.0626  -0.0169   C.ar      1 1      0.0000
    26 H6      -3.0177  -1.5772  -1.3872   H         1 1      0.0000
    27 H7      -3.2705   1.6675   1.4108   H         1 1      0.0000
    28 NO      -4.6931   0.1885  -0.2930   N.pl3     1 1      0.0000
    29 ON2     -5.3450   1.1017   0.3350   O.2       1 1      0.0000
    30 ON1     -5.2141  -0.6228  -1.1435   O.2       1 1      0.0000
    31 C15      5.4354  -0.4904   0.8260   C.3       1 1      0.0000
    32 H15C     5.6282   0.5322   1.1734   H         1 1      0.0000
    33 H15A     5.8403  -1.1616   1.5893   H         1 1      0.0000
    34 H15B     5.9983  -0.6845  -0.0958   H         1 1      0.0000
@<TRIPOS>BOND
     1     1     2    1
     2     1    15    1
     3     1    16    1
     4     1    18    1
     5     2     3    1
     6     2     4    1
     7     2    14    1
     8     4     5    1
     9     4     8    2
    10     5     6    1
    11     5     7    1
    12     5    31    1
    13     8     9    1
    14     8    10    1
    15    10    11    1
    16    10    12    1
    17    10    13    1
    18    15    17    1
    19    18    19   ar
    20    18    20   ar
    21    19    21   ar
    22    19    22    1
    23    20    23   ar
    24    20    24    1
    25    21    25   ar
    26    21    26    1
    27    23    25   ar
    28    23    27    1
    29    25    28    1
    30    28    29   un
    31    28    30   un
    32    31    32    1
    33    31    33    1
    34    31    34    1
@<TRIPOS>SUBSTRUCTURE
     1 1           1 GROUP             0 ****  ****    0  
@<TRIPOS>MOLECULE
Molecule Name_00010
    34    34     1     0     0
SMALL
NO_CHARGES
****
Generated from the CSD

@<TRIPOS>ATOM
     1 C11      0.9641   0.1528   0.6604   C.3       1 1      0.0000
     2 C12      1.7327  -0.4203  -0.5729   C.3       1 1      0.0000
     3 H12A     1.3272   0.0288  -1.4853   H         1 1      0.0000
     4 C13      3.2149  -0.1927  -0.4397   C.2       1 1      0.0000
     5 C14      4.0938  -1.3925  -0.2368   C.3       1 1      0.0000
     6 H14A     3.8973  -2.0828  -1.0717   H         1 1      0.0000
     7 H14B     3.6954  -1.8864   0.6625   H         1 1      0.0000
     8 N        3.7456   0.9994  -0.4918   N.pl3     1 1      0.0000
     9 HN       4.7618   1.0568  -0.3702   H         1 1      0.0000
    10 C        3.0646   2.3138  -0.6821   C.3       1 1      0.0000
    11 HA       3.7208   2.9505  -1.2802   H         1 1      0.0000
    12 HB       2.1180   2.1764  -1.2053   H         1 1      0.0000
    13 HC       2.8934   2.7792   0.2938   H         1 1      0.0000
    14 H12B     1.5482  -1.4965  -0.6134   H         1 1      0.0000
    15 O1       1.4079  -0.7189   1.7730   O.3       1 1      0.0000
    16 H11      1.2851   1.1833   0.8535   H         1 1      0.0000
    17 OH1      0.9053  -0.5191   2.6067   H         1 1      0.0000
    18 C10     -0.5323   0.1091   0.4306   C.ar      1 1      0.0000
    19 C5      -1.1431  -1.0889   0.0234   C.ar      1 1      0.0000
    20 C9      -1.3053   1.2661   0.6062   C.ar      1 1      0.0000
    21 C6      -2.5152  -1.1311  -0.2142   C.ar      1 1      0.0000
    22 H5      -0.5512  -1.9917  -0.0889   H         1 1      0.0000
    23 C8      -2.6793   1.2371   0.3600   C.ar      1 1      0.0000
    24 H8      -0.8441   2.1911   0.9410   H         1 1      0.0000
    25 C7      -3.2596   0.0378  -0.0480   C.ar      1 1      0.0000
    26 H6      -3.0088  -2.0435  -0.5232   H         1 1      0.0000
    27 H7      -3.2956   2.1178   0.4879   H         1 1      0.0000
    28 NO      -4.7101   0.0013  -0.3083   N.pl3     1 1      0.0000
    29 ON2     -5.3743   1.0905  -0.1484   O.2       1 1      0.0000
    30 ON1     -5.2251  -1.1172  -0.6781   O.2       1 1      0.0000
    31 C15      5.6021  -1.1279  -0.1016   C.3       1 1      0.0000
    32 H15C     5.8343  -0.5133   0.7771   H         1 1      0.0000
    33 H15A     6.1208  -2.0811   0.0375   H         1 1      0.0000
    34 H15B     6.0253  -0.6668  -1.0029   H         1 1      0.0000
@<TRIPOS>BOND
     1     1     2    1
     2     1    15    1
     3     1    16    1
     4     1    18    1
     5     2     3    1
     6     2     4    1
     7     2    14    1
     8     4     5    1
     9     4     8    2
    10     5     6    1
    11     5     7    1
    12     5    31    1
    13     8     9    1
    14     8    10    1
    15    10    11    1
    16    10    12    1
    17    10    13    1
    18    15    17    1
    19    18    19   ar
    20    18    20   ar
    21    19    21   ar
    22    19    22    1
    23    20    23   ar
    24    20    24    1
    25    21    25   ar
    26    21    26    1
    27    23    25   ar
    28    23    27    1
    29    25    28    1
    30    28    29   un
    31    28    30   un
    32    31    32    1
    33    31    33    1
    34    31    34    1
@<TRIPOS>SUBSTRUCTURE
     1 1           1 GROUP             0 ****  ****    0  
@<TRIPOS>MOLECULE
Molecule Name_00011
    34    34     1     0     0
SMALL
NO_CHARGES
****
Generated from the CSD

@<TRIPOS>ATOM
     1 C11      0.9529   0.1995   0.6727   C.3       1 1      0.0000
     2 C12      1.7401  -0.4418  -0.5144   C.3       1 1      0.0000
     3 H12A     1.3478  -0.0462  -1.4568   H         1 1      0.0000
     4 C13      3.2200  -0.2046  -0.3727   C.2       1 1      0.0000
     5 C14      4.0089  -1.1703   0.4630   C.3       1 1      0.0000
     6 H14A     3.8068  -2.1787   0.0699   H         1 1      0.0000
     7 H14B     3.5380  -1.1345   1.4572   H         1 1      0.0000
     8 N        3.8235   0.8026  -0.9444   N.pl3     1 1      0.0000
     9 HN       4.8300   0.8938  -0.7733   H         1 1      0.0000
    10 C        3.2376   1.8712  -1.8062   C.3       1 1      0.0000
    11 HA       3.9717   2.1255  -2.5744   H         1 1      0.0000
    12 HB       2.3242   1.5138  -2.2823   H         1 1      0.0000
    13 HC       3.0254   2.7548  -1.1960   H         1 1      0.0000
    14 H12B     1.5571  -1.5189  -0.4961   H         1 1      0.0000
    15 O1       1.3920  -0.5973   1.8420   O.3       1 1      0.0000
    16 H11      1.2628   1.2429   0.8048   H         1 1      0.0000
    17 OH1      0.8784  -0.3508   2.6564   H         1 1      0.0000
    18 C10     -0.5404   0.1275   0.4304   C.ar      1 1      0.0000
    19 C5      -1.0313  -0.4778  -0.7385   C.ar      1 1      0.0000
    20 C9      -1.4318   0.6798   1.3618   C.ar      1 1      0.0000
    21 C6      -2.4024  -0.5258  -0.9808   C.ar      1 1      0.0000
    22 H5      -0.3450  -0.9281  -1.4487   H         1 1      0.0000
    23 C8      -2.8070   0.6467   1.1231   C.ar      1 1      0.0000
    24 H8      -1.0615   1.1311   2.2781   H         1 1      0.0000
    25 C7      -3.2677   0.0452  -0.0463   C.ar      1 1      0.0000
    26 H6      -2.8043  -0.9917  -1.8714   H         1 1      0.0000
    27 H7      -3.5136   1.0673   1.8271   H         1 1      0.0000
    28 NO      -4.7188   0.0066  -0.3029   N.pl3     1 1      0.0000
    29 ON2     -5.4956   0.5392   0.5724   O.2       1 1      0.0000
    30 ON1     -5.1217  -0.5585  -1.3852   O.2       1 1      0.0000
    31 C15      5.5232  -0.9236   0.5577   C.3       1 1      0.0000
    32 H15C     5.7540   0.0400   1.0287   H         1 1      0.0000
    33 H15A     5.9721  -1.6960   1.1894   H         1 1      0.0000
    34 H15B     6.0168  -0.9895  -0.4202   H         1 1      0.0000
@<TRIPOS>BOND
     1     1     2    1
     2     1    15    1
     3     1    16    1
     4     1    18    1
     5     2     3    1
     6     2     4    1
     7     2    14    1
     8     4     5    1
     9     4     8    2
    10     5     6    1
    11     5     7    1
    12     5    31    1
    13     8     9    1
    14     8    10    1
    15    10    11    1
    16    10    12    1
    17    10    13    1
    18    15    17    1
    19    18    19   ar
    20    18    20   ar
    21    19    21   ar
    22    19    22    1
    23    20    23   ar
    24    20    24    1
    25    21    25   ar
    26    21    26    1
    27    23    25   ar
    28    23    27    1
    29    25    28    1
    30    28    29   un
    31    28    30   un
    32    31    32    1
    33    31    33    1
    34    31    34    1
@<TRIPOS>SUBSTRUCTURE
     1 1           1 GROUP             0 ****  ****    0  
@<TRIPOS>MOLECULE
Molecule Name_00012
    34    34     1     0     0
SMALL
NO_CHARGES
****
Generated from the CSD

@<TRIPOS>ATOM
     1 C11      0.9485  -0.5384  -0.4122   C.3       1 1      0.0000
     2 C12      1.7233   0.4970   0.4641   C.3       1 1      0.0000
     3 H12A     1.3272   0.4671   1.4843   H         1 1      0.0000
     4 C13      3.2056   0.2374   0.4240   C.2       1 1      0.0000
     5 C14      3.7579  -0.8205   1.3346   C.3       1 1      0.0000
     6 H14A     3.2116  -1.7515   1.1180   H         1 1      0.0000
     7 H14B     3.4451  -0.5157   2.3449   H         1 1      0.0000
     8 N        4.0091   0.8987  -0.3651   N.pl3     1 1      0.0000
     9 HN       5.0058   0.6664  -0.3071   H         1 1      0.0000
    10 C        3.6760   1.9806  -1.3379   C.3       1 1      0.0000
    11 HA       4.3334   1.8703  -2.2035   H         1 1      0.0000
    12 HB       2.6375   1.8936  -1.6583   H         1 1      0.0000
    13 HC       3.8473   2.9554  -0.8702   H         1 1      0.0000
    14 H12B     1.5332   1.4923   0.0553   H         1 1      0.0000
    15 O1       1.4307  -0.2518  -1.7834   O.3       1 1      0.0000
    16 H11      1.2382  -1.5572  -0.1288   H         1 1      0.0000
    17 OH1      0.9299  -0.7835  -2.4574   H         1 1      0.0000
    18 C10     -0.5479  -0.3617  -0.2585   C.ar      1 1      0.0000
    19 C5      -1.0509   0.6347   0.5947   C.ar      1 1      0.0000
    20 C9      -1.4305  -1.2024  -0.9522   C.ar      1 1      0.0000
    21 C6      -2.4257   0.7872   0.7609   C.ar      1 1      0.0000
    22 H5      -0.3705   1.3028   1.1132   H         1 1      0.0000
    23 C8      -2.8097  -1.0649  -0.7841   C.ar      1 1      0.0000
    24 H8      -1.0502  -1.9616  -1.6299   H         1 1      0.0000
    25 C7      -3.2827  -0.0724   0.0720   C.ar      1 1      0.0000
    26 H6      -2.8367   1.5511   1.4084   H         1 1      0.0000
    27 H7      -3.5098  -1.7028  -1.3082   H         1 1      0.0000
    28 NO      -4.7380   0.0777   0.2524   N.pl3     1 1      0.0000
    29 ON2     -5.5070  -0.7258  -0.3928   O.2       1 1      0.0000
    30 ON1     -5.1521   1.0038   1.0423   O.2       1 1      0.0000
    31 C15      5.2750  -1.0605   1.2728   C.3       1 1      0.0000
    32 H15C     5.8443  -0.1713   1.5709   H         1 1      0.0000
    33 H15A     5.5402  -1.8530   1.9791   H         1 1      0.0000
    34 H15B     5.6020  -1.3989   0.2815   H         1 1      0.0000
@<TRIPOS>BOND
     1     1     2    1
     2     1    15    1
     3     1    16    1
     4     1    18    1
     5     2     3    1
     6     2     4    1
     7     2    14    1
     8     4     5    1
     9     4     8    2
    10     5     6    1
    11     5     7    1
    12     5    31    1
    13     8     9    1
    14     8    10    1
    15    10    11    1
    16    10    12    1
    17    10    13    1
    18    15    17    1
    19    18    19   ar
    20    18    20   ar
    21    19    21   ar
    22    19    22    1
    23    20    23   ar
    24    20    24    1
    25    21    25   ar
    26    21    26    1
    27    23    25   ar
    28    23    27    1
    29    25    28    1
    30    28    29   un
    31    28    30   un
    32    31    32    1
    33    31    33    1
    34    31    34    1
@<TRIPOS>SUBSTRUCTURE
     1 1           1 GROUP             0 ****  ****    0  
@<TRIPOS>MOLECULE
Molecule Name_00013
    34    34     1     0     0
SMALL
NO_CHARGES
****
Generated from the CSD

@<TRIPOS>ATOM
     1 C11      0.9273  -0.0736  -0.7142   C.3       1 1      0.0000
     2 C12      1.7467   0.0780   0.6071   C.3       1 1      0.0000
     3 H12A     1.3631  -0.6316   1.3473   H         1 1      0.0000
     4 C13      3.2192  -0.1074   0.3544   C.2       1 1      0.0000
     5 C14      3.6563  -1.3468  -0.3710   C.3       1 1      0.0000
     6 H14A     3.1224  -1.3638  -1.3336   H         1 1      0.0000
     7 H14B     3.2429  -2.1799   0.2177   H         1 1      0.0000
     8 N        4.1098   0.7639   0.7457   N.pl3     1 1      0.0000
     9 HN       5.0904   0.5411   0.5469   H         1 1      0.0000
    10 C        3.8972   2.0483   1.4758   C.3       1 1      0.0000
    11 HA       4.7234   2.7186   1.2273   H         1 1      0.0000
    12 HB       2.9556   2.5050   1.1700   H         1 1      0.0000
    13 HC       3.8926   1.8572   2.5536   H         1 1      0.0000
    14 H12B     1.5838   1.0885   0.9895   H         1 1      0.0000
    15 O1       1.3659   1.0885  -1.5216   O.3       1 1      0.0000
    16 H11      1.2120  -1.0012  -1.2249   H         1 1      0.0000
    17 OH1      0.8345   1.1643  -2.3581   H         1 1      0.0000
    18 C10     -0.5602  -0.0727  -0.4290   C.ar      1 1      0.0000
    19 C5      -1.1423  -1.1538   0.2539   C.ar      1 1      0.0000
    20 C9      -1.3589   0.9961  -0.8611   C.ar      1 1      0.0000
    21 C6      -2.5138  -1.1723   0.4982   C.ar      1 1      0.0000
    22 H5      -0.5227  -1.9701   0.6114   H         1 1      0.0000
    23 C8      -2.7359   0.9819  -0.6310   C.ar      1 1      0.0000
    24 H8      -0.9134   1.8455  -1.3713   H         1 1      0.0000
    25 C7      -3.2892  -0.1045   0.0438   C.ar      1 1      0.0000
    26 H6      -2.9840  -1.9915   1.0270   H         1 1      0.0000
    27 H7      -3.3721   1.7950  -0.9561   H         1 1      0.0000
    28 NO      -4.7425  -0.1241   0.2902   N.pl3     1 1      0.0000
    29 ON2     -5.4354   0.8707  -0.1379   O.2       1 1      0.0000
    30 ON1     -5.2304  -1.1334   0.9198   O.2       1 1      0.0000
    31 C15      5.1678  -1.5202  -0.5913   C.3       1 1      0.0000
    32 H15C     5.7153  -1.5954   0.3564   H         1 1      0.0000
    33 H15A     5.3451  -2.4559  -1.1301   H         1 1      0.0000
    34 H15B     5.5928  -0.7167  -1.2060   H         1 1      0.0000
@<TRIPOS>BOND
     1     1     2    1
     2     1    15    1
     3     1    16    1
     4     1    18    1
     5     2     3    1
     6     2     4    1
     7     2    14    1
     8     4     5    1
     9     4     8    2
    10     5     6    1
    11     5     7    1
    12     5    31    1
    13     8     9    1
    14     8    10    1
    15    10    11    1
    16    10    12    1
    17    10    13    1
    18    15    17    1
    19    18    19   ar
    20    18    20   ar
    21    19    21   ar
    22    19    22    1
    23    20    23   ar
    24    20    24    1
    25    21    25   ar
    26    21    26    1
    27    23    25   ar
    28    23    27    1
    29    25    28    1
    30    28    29   un
    31    28    30   un
    32    31    32    1
    33    31    33    1
    34    31    34    1
@<TRIPOS>SUBSTRUCTURE
     1 1           1 GROUP             0 ****  ****    0  
@<TRIPOS>MOLECULE
Molecule Name_00014
    34    34     1     0     0
SMALL
NO_CHARGES
****
Generated from the CSD

@<TRIPOS>ATOM
     1 C11      0.9610  -0.0855   0.6426   C.3       1 1      0.0000
     2 C12      1.7535  -0.1844  -0.6999   C.3       1 1      0.0000
     3 H12A     1.3560   0.5545  -1.4033   H         1 1      0.0000
     4 C13      3.2310  -0.0100  -0.4697   C.2       1 1      0.0000
     5 C14      4.1204  -1.1998  -0.6860   C.3       1 1      0.0000
     6 H14A     3.9435  -1.5536  -1.7135   H         1 1      0.0000
     7 H14B     3.7147  -1.9803  -0.0245   H         1 1      0.0000
     8 N        3.7490   1.1272  -0.0905   N.pl3     1 1      0.0000
     9 HN       4.7626   1.1439   0.0611   H         1 1      0.0000
    10 C        3.0560   2.4210   0.1813   C.3       1 1      0.0000
    11 HA       3.7135   3.2308  -0.1436   H         1 1      0.0000
    12 HB       2.1186   2.4709  -0.3731   H         1 1      0.0000
    13 HC       2.8658   2.5128   1.2554   H         1 1      0.0000
    14 H12B     1.5817  -1.1787  -1.1191   H         1 1      0.0000
    15 O1       1.3987  -1.2901   1.3856   O.3       1 1      0.0000
    16 H11      1.2676   0.8131   1.1910   H         1 1      0.0000
    17 OH1      0.8820  -1.3988   2.2276   H         1 1      0.0000
    18 C10     -0.5314  -0.0539   0.3863   C.ar      1 1      0.0000
    19 C5      -1.1115   1.0656  -0.2334   C.ar      1 1      0.0000
    20 C9      -1.3364  -1.1318   0.7827   C.ar      1 1      0.0000
    21 C6      -2.4869   1.1132  -0.4501   C.ar      1 1      0.0000
    22 H5      -0.4876   1.8901  -0.5637   H         1 1      0.0000
    23 C8      -2.7171  -1.0893   0.5800   C.ar      1 1      0.0000
    24 H8      -0.8931  -2.0102   1.2435   H         1 1      0.0000
    25 C7      -3.2681   0.0348  -0.0318   C.ar      1 1      0.0000
    26 H6      -2.9556   1.9625  -0.9304   H         1 1      0.0000
    27 H7      -3.3582  -1.9088   0.8785   H         1 1      0.0000
    28 NO      -4.7253   0.0846  -0.2491   N.pl3     1 1      0.0000
    29 ON2     -5.4236  -0.9206   0.1447   O.2       1 1      0.0000
    30 ON1     -5.2112   1.1288  -0.8207   O.2       1 1      0.0000
    31 C15      5.6234  -0.9912  -0.4404   C.3       1 1      0.0000
    32 H15C     5.8363  -0.7233   0.6021   H         1 1      0.0000
    33 H15A     6.1509  -1.9296  -0.6361   H         1 1      0.0000
    34 H15B     6.0543  -0.2404  -1.1148   H         1 1      0.0000
@<TRIPOS>BOND
     1     1     2    1
     2     1    15    1
     3     1    16    1
     4     1    18    1
     5     2     3    1
     6     2     4    1
     7     2    14    1
     8     4     5    1
     9     4     8    2
    10     5     6    1
    11     5     7    1
    12     5    31    1
    13     8     9    1
    14     8    10    1
    15    10    11    1
    16    10    12    1
    17    10    13    1
    18    15    17    1
    19    18    19   ar
    20    18    20   ar
    21    19    21   ar
    22    19    22    1
    23    20    23   ar
    24    20    24    1
    25    21    25   ar
    26    21    26    1
    27    23    25   ar
    28    23    27    1
    29    25    28    1
    30    28    29   un
    31    28    30   un
    32    31    32    1
    33    31    33    1
    34    31    34    1
@<TRIPOS>SUBSTRUCTURE
     1 1           1 GROUP             0 ****  ****    0  
@<TRIPOS>MOLECULE
Molecule Name_00015
    34    34     1     0     0
SMALL
NO_CHARGES
****
Generated from the CSD

@<TRIPOS>ATOM
     1 C11      1.2121  -0.9841   1.3854   C.3       1 1      0.0000
     2 C12      2.2827  -1.0330   0.2489   C.3       1 1      0.0000
     3 H12A     1.9832  -1.7831  -0.4903   H         1 1      0.0000
     4 C13      2.4773   0.3257  -0.3696   C.2       1 1      0.0000
     5 C14      3.3810   1.2950   0.3355   C.3       1 1      0.0000
     6 H14A     3.0392   1.3550   1.3804   H         1 1      0.0000
     7 H14B     3.1516   2.2735  -0.1132   H         1 1      0.0000
     8 N        1.8886   0.6777  -1.4809   N.pl3     1 1      0.0000
     9 HN       2.0655   1.6309  -1.8139   H         1 1      0.0000
    10 C        0.9592  -0.1192  -2.3347   C.3       1 1      0.0000
    11 HA       1.1513   0.1423  -3.3779   H         1 1      0.0000
    12 HB       1.1346  -1.1855  -2.1903   H         1 1      0.0000
    13 HC      -0.0751   0.1321  -2.0790   H         1 1      0.0000
    14 H12B     3.2291  -1.3523   0.6921   H         1 1      0.0000
    15 O1       1.2136  -2.3681   1.9138   O.3       1 1      0.0000
    16 H11      1.5356  -0.2925   2.1724   H         1 1      0.0000
    17 OH1      0.4912  -2.4960   2.5843   H         1 1      0.0000
    18 C10     -0.1344  -0.5569   0.8393   C.ar      1 1      0.0000
    19 C5      -0.5489   0.7796   0.9660   C.ar      1 1      0.0000
    20 C9      -0.9745  -1.4965   0.2243   C.ar      1 1      0.0000
    21 C6      -1.7966   1.1751   0.4887   C.ar      1 1      0.0000
    22 H5       0.1096   1.5139   1.4190   H         1 1      0.0000
    23 C8      -2.2312  -1.1127  -0.2475   C.ar      1 1      0.0000
    24 H8      -0.6529  -2.5272   0.1036   H         1 1      0.0000
    25 C7      -2.6206   0.2176  -0.1048   C.ar      1 1      0.0000
    26 H6      -2.1353   2.2000   0.5701   H         1 1      0.0000
    27 H7      -2.8967  -1.8205  -0.7247   H         1 1      0.0000
    28 NO      -3.9461   0.6286  -0.6020   N.pl3     1 1      0.0000
    29 ON2     -4.6869  -0.2713  -1.1448   O.2       1 1      0.0000
    30 ON1     -4.2821   1.8620  -0.4651   O.2       1 1      0.0000
    31 C15      4.8884   0.9989   0.2791   C.3       1 1      0.0000
    32 H15C     5.2734   1.0210  -0.7480   H         1 1      0.0000
    33 H15A     5.4258   1.7757   0.8313   H         1 1      0.0000
    34 H15B     5.1418   0.0422   0.7529   H         1 1      0.0000
@<TRIPOS>BOND
     1     1     2    1
     2     1    15    1
     3     1    16    1
     4     1    18    1
     5     2     3    1
     6     2     4    1
     7     2    14    1
     8     4     5    1
     9     4     8    2
    10     5     6    1
    11     5     7    1
    12     5    31    1
    13     8     9    1
    14     8    10    1
    15    10    11    1
    16    10    12    1
    17    10    13    1
    18    15    17    1
    19    18    19   ar
    20    18    20   ar
    21    19    21   ar
    22    19    22    1
    23    20    23   ar
    24    20    24    1
    25    21    25   ar
    26    21    26    1
    27    23    25   ar
    28    23    27    1
    29    25    28    1
    30    28    29   un
    31    28    30   un
    32    31    32    1
    33    31    33    1
    34    31    34    1
@<TRIPOS>SUBSTRUCTURE
     1 1           1 GROUP             0 ****  ****    0  
@<TRIPOS>MOLECULE
Molecule Name_00016
    34    34     1     0     0
SMALL
NO_CHARGES
****
Generated from the CSD

@<TRIPOS>ATOM
     1 C11      1.3767  -1.2770   1.0026   C.3       1 1      0.0000
     2 C12      2.3918  -1.1082  -0.1727   C.3       1 1      0.0000
     3 H12A     2.0462  -1.6966  -1.0289   H         1 1      0.0000
     4 C13      2.5782   0.3443  -0.5217   C.2       1 1      0.0000
     5 C14      3.5360   1.1484   0.3085   C.3       1 1      0.0000
     6 H14A     3.7616   2.0666  -0.2556   H         1 1      0.0000
     7 H14B     4.4672   0.5617   0.3141   H         1 1      0.0000
     8 N        1.9377   0.9132  -1.5074   N.pl3     1 1      0.0000
     9 HN       2.1142   1.9120  -1.6558   H         1 1      0.0000
    10 C        0.9495   0.3076  -2.4480   C.3       1 1      0.0000
    11 HA       1.0905   0.7685  -3.4285   H         1 1      0.0000
    12 HB       1.1126  -0.7675  -2.5262   H         1 1      0.0000
    13 HC      -0.0648   0.5114  -2.0904   H         1 1      0.0000
    14 H12B     3.3528  -1.5141   0.1522   H         1 1      0.0000
    15 O1       1.3853  -2.7373   1.2523   O.3       1 1      0.0000
    16 H11      1.7458  -0.7524   1.8919   H         1 1      0.0000
    17 OH1      0.6938  -2.9904   1.9197   H         1 1      0.0000
    18 C10      0.0115  -0.7474   0.6159   C.ar      1 1      0.0000
    19 C5      -0.3802   0.5397   1.0208   C.ar      1 1      0.0000
    20 C9      -0.8678  -1.5461  -0.1295   C.ar      1 1      0.0000
    21 C6      -1.6438   1.0246   0.6905   C.ar      1 1      0.0000
    22 H5       0.3077   1.1694   1.5762   H         1 1      0.0000
    23 C8      -2.1404  -1.0738  -0.4562   C.ar      1 1      0.0000
    24 H8      -0.5649  -2.5343  -0.4644   H         1 1      0.0000
    25 C7      -2.5063   0.2041  -0.0381   C.ar      1 1      0.0000
    26 H6      -1.9657   2.0148   0.9866   H         1 1      0.0000
    27 H7      -2.8361  -1.6727  -1.0297   H         1 1      0.0000
    28 NO      -3.8484   0.7082  -0.3811   N.pl3     1 1      0.0000
    29 ON2     -4.6247  -0.0660  -1.0527   O.2       1 1      0.0000
    30 ON1     -4.1624   1.8921   0.0099   O.2       1 1      0.0000
    31 C15      3.0889   1.4922   1.7386   C.3       1 1      0.0000
    32 H15C     3.0881   0.6109   2.3920   H         1 1      0.0000
    33 H15A     3.7979   2.2031   2.1732   H         1 1      0.0000
    34 H15B     2.1038   1.9751   1.7610   H         1 1      0.0000
@<TRIPOS>BOND
     1     1     2    1
     2     1    15    1
     3     1    16    1
     4     1    18    1
     5     2     3    1
     6     2     4    1
     7     2    14    1
     8     4     5    1
     9     4     8    2
    10     5     6    1
    11     5     7    1
    12     5    31    1
    13     8     9    1
    14     8    10    1
    15    10    11    1
    16    10    12    1
    17    10    13    1
    18    15    17    1
    19    18    19   ar
    20    18    20   ar
    21    19    21   ar
    22    19    22    1
    23    20    23   ar
    24    20    24    1
    25    21    25   ar
    26    21    26    1
    27    23    25   ar
    28    23    27    1
    29    25    28    1
    30    28    29   un
    31    28    30   un
    32    31    32    1
    33    31    33    1
    34    31    34    1
@<TRIPOS>SUBSTRUCTURE
     1 1           1 GROUP             0 ****  ****    0  
@<TRIPOS>MOLECULE
Molecule Name_00017
    34    34     1     0     0
SMALL
NO_CHARGES
****
Generated from the CSD

@<TRIPOS>ATOM
     1 C11      1.1742   0.4881   1.6442   C.3       1 1      0.0000
     2 C12      2.3262  -0.2509   0.8913   C.3       1 1      0.0000
     3 H12A     2.1398  -1.3292   0.9258   H         1 1      0.0000
     4 C13      2.4621   0.2557  -0.5199   C.2       1 1      0.0000
     5 C14      1.6670  -0.4314  -1.5919   C.3       1 1      0.0000
     6 H14A     1.6528   0.2396  -2.4647   H         1 1      0.0000
     7 H14B     0.6349  -0.4510  -1.2101   H         1 1      0.0000
     8 N        3.2416   1.2564  -0.8304   N.pl3     1 1      0.0000
     9 HN       3.2846   1.5165  -1.8209   H         1 1      0.0000
    10 C        4.1118   2.0716   0.0674   C.3       1 1      0.0000
    11 HA       4.1050   3.1007  -0.2993   H         1 1      0.0000
    12 HB       3.7288   2.0481   1.0878   H         1 1      0.0000
    13 HC       5.1334   1.6794   0.0376   H         1 1      0.0000
    14 H12B     3.2588  -0.0505   1.4242   H         1 1      0.0000
    15 O1       1.2536  -0.0665   3.0157   O.3       1 1      0.0000
    16 H11      1.3788   1.5649   1.6734   H         1 1      0.0000
    17 OH1      0.4970   0.2530   3.5754   H         1 1      0.0000
    18 C10     -0.1596   0.2305   0.9744   C.ar      1 1      0.0000
    19 C5      -0.7132   1.2002   0.1217   C.ar      1 1      0.0000
    20 C9      -0.8501  -0.9655   1.2183   C.ar      1 1      0.0000
    21 C6      -1.9513   0.9816  -0.4786   C.ar      1 1      0.0000
    22 H5      -0.1694   2.1157  -0.0884   H         1 1      0.0000
    23 C8      -2.0965  -1.1896   0.6304   C.ar      1 1      0.0000
    24 H8      -0.4194  -1.7293   1.8597   H         1 1      0.0000
    25 C7      -2.6259  -0.2097  -0.2070   C.ar      1 1      0.0000
    26 H6      -2.3953   1.7115  -1.1433   H         1 1      0.0000
    27 H7      -2.6480  -2.1045   0.8048   H         1 1      0.0000
    28 NO      -3.9411  -0.4415  -0.8312   N.pl3     1 1      0.0000
    29 ON2     -4.5429  -1.5463  -0.5658   O.2       1 1      0.0000
    30 ON1     -4.4075   0.4734  -1.6047   O.2       1 1      0.0000
    31 C15      2.1331  -1.8375  -2.0023   C.3       1 1      0.0000
    32 H15C     2.0727  -2.5498  -1.1700   H         1 1      0.0000
    33 H15A     1.4729  -2.2176  -2.7877   H         1 1      0.0000
    34 H15B     3.1486  -1.8337  -2.4181   H         1 1      0.0000
@<TRIPOS>BOND
     1     1     2    1
     2     1    15    1
     3     1    16    1
     4     1    18    1
     5     2     3    1
     6     2     4    1
     7     2    14    1
     8     4     5    1
     9     4     8    2
    10     5     6    1
    11     5     7    1
    12     5    31    1
    13     8     9    1
    14     8    10    1
    15    10    11    1
    16    10    12    1
    17    10    13    1
    18    15    17    1
    19    18    19   ar
    20    18    20   ar
    21    19    21   ar
    22    19    22    1
    23    20    23   ar
    24    20    24    1
    25    21    25   ar
    26    21    26    1
    27    23    25   ar
    28    23    27    1
    29    25    28    1
    30    28    29   un
    31    28    30   un
    32    31    32    1
    33    31    33    1
    34    31    34    1
@<TRIPOS>SUBSTRUCTURE
     1 1           1 GROUP             0 ****  ****    0  
@<TRIPOS>MOLECULE
Molecule Name_00018
    34    34     1     0     0
SMALL
NO_CHARGES
****
Generated from the CSD

@<TRIPOS>ATOM
     1 C11      1.0645   0.1143   0.5615   C.3       1 1      0.0000
     2 C12      1.8368  -0.0929  -0.7804   C.3       1 1      0.0000
     3 H12A     1.3978   0.5534  -1.5474   H         1 1      0.0000
     4 C13      3.3099   0.1607  -0.6012   C.2       1 1      0.0000
     5 C14      4.2427  -1.0098  -0.7158   C.3       1 1      0.0000
     6 H14A     5.2569  -0.6035  -0.8516   H         1 1      0.0000
     7 H14B     3.9796  -1.4889  -1.6711   H         1 1      0.0000
     8 N        3.7881   1.3496  -0.3499   N.pl3     1 1      0.0000
     9 HN       4.8028   1.4205  -0.2229   H         1 1      0.0000
    10 C        3.0483   2.6367  -0.1948   C.3       1 1      0.0000
    11 HA       3.6666   3.4340  -0.6139   H         1 1      0.0000
    12 HB       2.0999   2.5940  -0.7309   H         1 1      0.0000
    13 HC       2.8736   2.8297   0.8684   H         1 1      0.0000
    14 H12B     1.6978  -1.1312  -1.0913   H         1 1      0.0000
    15 O1       1.5624  -0.9899   1.4145   O.3       1 1      0.0000
    16 H11      1.3448   1.0756   1.0082   H         1 1      0.0000
    17 OH1      1.0651  -1.0304   2.2741   H         1 1      0.0000
    18 C10     -0.4322   0.0631   0.3353   C.ar      1 1      0.0000
    19 C5      -1.1633   1.2571   0.2169   C.ar      1 1      0.0000
    20 C9      -1.0910  -1.1729   0.2620   C.ar      1 1      0.0000
    21 C6      -2.5438   1.2189   0.0338   C.ar      1 1      0.0000
    22 H5      -0.6526   2.2143   0.2482   H         1 1      0.0000
    23 C8      -2.4756  -1.2218   0.0897   C.ar      1 1      0.0000
    24 H8      -0.5303  -2.1008   0.3316   H         1 1      0.0000
    25 C7      -3.1779  -0.0233  -0.0196   C.ar      1 1      0.0000
    26 H6      -3.1273   2.1252  -0.0655   H         1 1      0.0000
    27 H7      -3.0054  -2.1639   0.0312   H         1 1      0.0000
    28 NO      -4.6399  -0.0692  -0.2027   N.pl3     1 1      0.0000
    29 ON2     -5.2011  -1.2251  -0.2487   O.2       1 1      0.0000
    30 ON1     -5.2667   1.0485  -0.3071   O.2       1 1      0.0000
    31 C15      4.2204  -2.0252   0.4382   C.3       1 1      0.0000
    32 H15C     3.2421  -2.5115   0.5389   H         1 1      0.0000
    33 H15A     4.9442  -2.8188   0.2295   H         1 1      0.0000
    34 H15B     4.5138  -1.5739   1.3944   H         1 1      0.0000
@<TRIPOS>BOND
     1     1     2    1
     2     1    15    1
     3     1    16    1
     4     1    18    1
     5     2     3    1
     6     2     4    1
     7     2    14    1
     8     4     5    1
     9     4     8    2
    10     5     6    1
    11     5     7    1
    12     5    31    1
    13     8     9    1
    14     8    10    1
    15    10    11    1
    16    10    12    1
    17    10    13    1
    18    15    17    1
    19    18    19   ar
    20    18    20   ar
    21    19    21   ar
    22    19    22    1
    23    20    23   ar
    24    20    24    1
    25    21    25   ar
    26    21    26    1
    27    23    25   ar
    28    23    27    1
    29    25    28    1
    30    28    29   un
    31    28    30   un
    32    31    32    1
    33    31    33    1
    34    31    34    1
@<TRIPOS>SUBSTRUCTURE
     1 1           1 GROUP             0 ****  ****    0  
@<TRIPOS>MOLECULE
Molecule Name_00019
    34    34     1     0     0
SMALL
NO_CHARGES
****
Generated from the CSD

@<TRIPOS>ATOM
     1 C11      1.1033  -0.3801   0.5947   C.3       1 1      0.0000
     2 C12      1.8464  -0.2838  -0.7760   C.3       1 1      0.0000
     3 H12A     1.2647   0.3507  -1.4526   H         1 1      0.0000
     4 C13      3.2528   0.2215  -0.5943   C.2       1 1      0.0000
     5 C14      4.3106  -0.7707  -0.2071   C.3       1 1      0.0000
     6 H14A     5.2839  -0.3192  -0.4542   H         1 1      0.0000
     7 H14B     4.1813  -1.6100  -0.9073   H         1 1      0.0000
     8 N        3.5699   1.4777  -0.7583   N.pl3     1 1      0.0000
     9 HN       4.5492   1.7309  -0.5921   H         1 1      0.0000
    10 C        2.6856   2.6191  -1.1362   C.3       1 1      0.0000
    11 HA       3.2672   3.3061  -1.7554   H         1 1      0.0000
    12 HB       1.8264   2.2596  -1.7030   H         1 1      0.0000
    13 HC       2.3521   3.1359  -0.2307   H         1 1      0.0000
    14 H12B     1.8901  -1.2875  -1.2059   H         1 1      0.0000
    15 O1       1.4990  -1.7142   1.1031   O.3       1 1      0.0000
    16 H11      1.4751   0.3950   1.2753   H         1 1      0.0000
    17 OH1      1.0042  -1.9416   1.9345   H         1 1      0.0000
    18 C10     -0.3926  -0.2341   0.4081   C.ar      1 1      0.0000
    19 C5      -1.1590  -1.3408   0.0059   C.ar      1 1      0.0000
    20 C9      -1.0100   1.0075   0.6187   C.ar      1 1      0.0000
    21 C6      -2.5317  -1.2085  -0.1922   C.ar      1 1      0.0000
    22 H5      -0.6877  -2.3085  -0.1335   H         1 1      0.0000
    23 C8      -2.3832   1.1532   0.4123   C.ar      1 1      0.0000
    24 H8      -0.4280   1.8629   0.9499   H         1 1      0.0000
    25 C7      -3.1196   0.0414   0.0083   C.ar      1 1      0.0000
    26 H6      -3.1436  -2.0480  -0.4966   H         1 1      0.0000
    27 H7      -2.8810   2.1017   0.5676   H         1 1      0.0000
    28 NO      -4.5699   0.1894  -0.2101   N.pl3     1 1      0.0000
    29 ON2     -5.0884   1.3503  -0.0190   O.2       1 1      0.0000
    30 ON1     -5.2305  -0.8510  -0.5768   O.2       1 1      0.0000
    31 C15      4.2987  -1.2582   1.2507   C.3       1 1      0.0000
    32 H15C     3.8424  -2.2512   1.3483   H         1 1      0.0000
    33 H15A     5.3298  -1.3517   1.6045   H         1 1      0.0000
    34 H15B     3.7979  -0.5490   1.9218   H         1 1      0.0000
@<TRIPOS>BOND
     1     1     2    1
     2     1    15    1
     3     1    16    1
     4     1    18    1
     5     2     3    1
     6     2     4    1
     7     2    14    1
     8     4     5    1
     9     4     8    2
    10     5     6    1
    11     5     7    1
    12     5    31    1
    13     8     9    1
    14     8    10    1
    15    10    11    1
    16    10    12    1
    17    10    13    1
    18    15    17    1
    19    18    19   ar
    20    18    20   ar
    21    19    21   ar
    22    19    22    1
    23    20    23   ar
    24    20    24    1
    25    21    25   ar
    26    21    26    1
    27    23    25   ar
    28    23    27    1
    29    25    28    1
    30    28    29   un
    31    28    30   un
    32    31    32    1
    33    31    33    1
    34    31    34    1
@<TRIPOS>SUBSTRUCTURE
     1 1           1 GROUP             0 ****  ****    0  
@<TRIPOS>MOLECULE
Molecule Name_00020
    34    34     1     0     0
SMALL
NO_CHARGES
****
Generated from the CSD

@<TRIPOS>ATOM
     1 C11      1.0184  -0.3017  -0.7525   C.3       1 1      0.0000
     2 C12      1.8212   0.4216   0.3755   C.3       1 1      0.0000
     3 H12A     1.4798   0.0528   1.3481   H         1 1      0.0000
     4 C13      3.3035   0.2368   0.1879   C.2       1 1      0.0000
     5 C14      3.8227  -1.1636   0.0374   C.3       1 1      0.0000
     6 H14A     4.8551  -1.0876  -0.3375   H         1 1      0.0000
     7 H14B     3.2343  -1.5967  -0.7858   H         1 1      0.0000
     8 N        4.1342   1.2439   0.1566   N.pl3     1 1      0.0000
     9 HN       5.1279   1.0180   0.0456   H         1 1      0.0000
    10 C        3.8361   2.7006   0.2871   C.3       1 1      0.0000
    11 HA       4.6170   3.2535  -0.2403   H         1 1      0.0000
    12 HB       2.8672   2.9290  -0.1575   H         1 1      0.0000
    13 HC       3.8418   2.9794   1.3456   H         1 1      0.0000
    14 H12B     1.5938   1.4889   0.3184   H         1 1      0.0000
    15 O1       1.4071   0.4390  -1.9752   O.3       1 1      0.0000
    16 H11      1.3496  -1.3436  -0.8361   H         1 1      0.0000
    17 OH1      0.8781   0.1365  -2.7604   H         1 1      0.0000
    18 C10     -0.4693  -0.2501  -0.4731   C.ar      1 1      0.0000
    19 C5      -1.0851   0.9796  -0.1857   C.ar      1 1      0.0000
    20 C9      -1.2285  -1.4293  -0.4830   C.ar      1 1      0.0000
    21 C6      -2.4482   1.0323   0.0971   C.ar      1 1      0.0000
    22 H5      -0.5048   1.8968  -0.2020   H         1 1      0.0000
    23 C8      -2.5930  -1.3888  -0.1902   C.ar      1 1      0.0000
    24 H8      -0.7642  -2.3813  -0.7247   H         1 1      0.0000
    25 C7      -3.1784  -0.1573   0.0967   C.ar      1 1      0.0000
    26 H6      -2.9456   1.9684   0.3159   H         1 1      0.0000
    27 H7      -3.1986  -2.2860  -0.1910   H         1 1      0.0000
    28 NO      -4.6189  -0.1087   0.4056   N.pl3     1 1      0.0000
    29 ON2     -5.2700  -1.2173   0.3991   O.2       1 1      0.0000
    30 ON1     -5.1391   1.0390   0.6615   O.2       1 1      0.0000
    31 C15      3.7688  -2.0573   1.2870   C.3       1 1      0.0000
    32 H15C     2.7399  -2.2222   1.6303   H         1 1      0.0000
    33 H15A     4.1777  -3.0417   1.0400   H         1 1      0.0000
    34 H15B     4.3779  -1.6597   2.1086   H         1 1      0.0000
@<TRIPOS>BOND
     1     1     2    1
     2     1    15    1
     3     1    16    1
     4     1    18    1
     5     2     3    1
     6     2     4    1
     7     2    14    1
     8     4     5    1
     9     4     8    2
    10     5     6    1
    11     5     7    1
    12     5    31    1
    13     8     9    1
    14     8    10    1
    15    10    11    1
    16    10    12    1
    17    10    13    1
    18    15    17    1
    19    18    19   ar
    20    18    20   ar
    21    19    21   ar
    22    19    22    1
    23    20    23   ar
    24    20    24    1
    25    21    25   ar
    26    21    26    1
    27    23    25   ar
    28    23    27    1
    29    25    28    1
    30    28    29   un
    31    28    30   un
    32    31    32    1
    33    31    33    1
    34    31    34    1
@<TRIPOS>SUBSTRUCTURE
     1 1           1 GROUP             0 ****  ****    0  
@<TRIPOS>MOLECULE
Molecule Name_00021
    34    34     1     0     0
SMALL
NO_CHARGES
****
Generated from the CSD

@<TRIPOS>ATOM
     1 C11      1.0698  -0.4721  -0.3565   C.3       1 1      0.0000
     2 C12      1.7785   0.5730   0.5632   C.3       1 1      0.0000
     3 H12A     1.3613   0.4997   1.5728   H         1 1      0.0000
     4 C13      3.2714   0.3792   0.5515   C.2       1 1      0.0000
     5 C14      3.8032  -0.9938   0.8436   C.3       1 1      0.0000
     6 H14A     3.2655  -1.3678   1.7287   H         1 1      0.0000
     7 H14B     4.8422  -0.8316   1.1685   H         1 1      0.0000
     8 N        4.1004   1.3568   0.3018   N.pl3     1 1      0.0000
     9 HN       5.1001   1.1332   0.3368   H         1 1      0.0000
    10 C        3.7904   2.7836  -0.0081   C.3       1 1      0.0000
    11 HA       4.6809   3.3777   0.2108   H         1 1      0.0000
    12 HB       3.5316   2.8936  -1.0615   H         1 1      0.0000
    13 HC       2.9616   3.1209   0.6224   H         1 1      0.0000
    14 H12B     1.5540   1.5694   0.1748   H         1 1      0.0000
    15 O1       1.5748  -0.1340  -1.7076   O.3       1 1      0.0000
    16 H11      1.3939  -1.4847  -0.0884   H         1 1      0.0000
    17 OH1      1.1138  -0.6696  -2.4064   H         1 1      0.0000
    18 C10     -0.4360  -0.3601  -0.2387   C.ar      1 1      0.0000
    19 C5      -1.0592   0.8893  -0.3960   C.ar      1 1      0.0000
    20 C9      -1.2062  -1.4974   0.0448   C.ar      1 1      0.0000
    21 C6      -2.4414   1.0051  -0.2644   C.ar      1 1      0.0000
    22 H5      -0.4683   1.7663  -0.6402   H         1 1      0.0000
    23 C8      -2.5907  -1.3900   0.1895   C.ar      1 1      0.0000
    24 H8      -0.7344  -2.4706   0.1472   H         1 1      0.0000
    25 C7      -3.1836  -0.1387   0.0339   C.ar      1 1      0.0000
    26 H6      -2.9443   1.9558  -0.3866   H         1 1      0.0000
    27 H7      -3.2051  -2.2537   0.4091   H         1 1      0.0000
    28 NO      -4.6451  -0.0198   0.1847   N.pl3     1 1      0.0000
    29 ON2     -5.3071  -1.0873   0.4594   O.2       1 1      0.0000
    30 ON1     -5.1714   1.1432   0.0310   O.2       1 1      0.0000
    31 C15      3.7337  -2.0184  -0.3003   C.3       1 1      0.0000
    32 H15C     3.4883  -1.5468  -1.2600   H         1 1      0.0000
    33 H15A     4.7162  -2.4841  -0.4228   H         1 1      0.0000
    34 H15B     3.0244  -2.8287  -0.0897   H         1 1      0.0000
@<TRIPOS>BOND
     1     1     2    1
     2     1    15    1
     3     1    16    1
     4     1    18    1
     5     2     3    1
     6     2     4    1
     7     2    14    1
     8     4     5    1
     9     4     8    2
    10     5     6    1
    11     5     7    1
    12     5    31    1
    13     8     9    1
    14     8    10    1
    15    10    11    1
    16    10    12    1
    17    10    13    1
    18    15    17    1
    19    18    19   ar
    20    18    20   ar
    21    19    21   ar
    22    19    22    1
    23    20    23   ar
    24    20    24    1
    25    21    25   ar
    26    21    26    1
    27    23    25   ar
    28    23    27    1
    29    25    28    1
    30    28    29   un
    31    28    30   un
    32    31    32    1
    33    31    33    1
    34    31    34    1
@<TRIPOS>SUBSTRUCTURE
     1 1           1 GROUP             0 ****  ****    0  
@<TRIPOS>MOLECULE
Molecule Name_00022
    34    34     1     0     0
SMALL
NO_CHARGES
****
Generated from the CSD

@<TRIPOS>ATOM
     1 C11      1.0215  -0.0938   0.8002   C.3       1 1      0.0000
     2 C12      1.8366  -0.0485  -0.5316   C.3       1 1      0.0000
     3 H12A     1.3355   0.6264  -1.2330   H         1 1      0.0000
     4 C13      3.2644   0.3560  -0.2781   C.2       1 1      0.0000
     5 C14      4.0285  -0.3897   0.7770   C.3       1 1      0.0000
     6 H14A     3.4490  -0.3147   1.7102   H         1 1      0.0000
     7 H14B     4.9401   0.2051   0.9398   H         1 1      0.0000
     8 N        3.8436   1.3230  -0.9376   N.pl3     1 1      0.0000
     9 HN       4.8119   1.5402  -0.6807   H         1 1      0.0000
    10 C        3.2748   2.1865  -2.0140   C.3       1 1      0.0000
    11 HA       4.0698   2.3970  -2.7333   H         1 1      0.0000
    12 HB       2.4569   1.6716  -2.5185   H         1 1      0.0000
    13 HC       2.9189   3.1250  -1.5771   H         1 1      0.0000
    14 H12B     1.8308  -1.0522  -0.9635   H         1 1      0.0000
    15 O1       1.4781  -1.3516   1.4359   O.3       1 1      0.0000
    16 H11      1.2969   0.7569   1.4348   H         1 1      0.0000
    17 OH1      0.9515  -1.5504   2.2550   H         1 1      0.0000
    18 C10     -0.4672  -0.0739   0.5218   C.ar      1 1      0.0000
    19 C5      -1.0211  -0.9897  -0.3885   C.ar      1 1      0.0000
    20 C9      -1.2894   0.8680   1.1572   C.ar      1 1      0.0000
    21 C6      -2.3855  -0.9616  -0.6689   C.ar      1 1      0.0000
    22 H5      -0.3913  -1.7358  -0.8625   H         1 1      0.0000
    23 C8      -2.6560   0.9116   0.8747   C.ar      1 1      0.0000
    24 H8      -0.8725   1.5658   1.8780   H         1 1      0.0000
    25 C7      -3.1795  -0.0041  -0.0358   C.ar      1 1      0.0000
    26 H6      -2.8357  -1.6603  -1.3623   H         1 1      0.0000
    27 H7      -3.3096   1.6303   1.3522   H         1 1      0.0000
    28 NO      -4.6219   0.0369  -0.3369   N.pl3     1 1      0.0000
    29 ON2     -5.3324   0.9277   0.2587   O.2       1 1      0.0000
    30 ON1     -5.0841  -0.8211  -1.1756   O.2       1 1      0.0000
    31 C15      4.3710  -1.8572   0.4733   C.3       1 1      0.0000
    32 H15C     5.0231  -1.9540  -0.4037   H         1 1      0.0000
    33 H15A     4.9212  -2.2781   1.3201   H         1 1      0.0000
    34 H15B     3.4734  -2.4746   0.3418   H         1 1      0.0000
@<TRIPOS>BOND
     1     1     2    1
     2     1    15    1
     3     1    16    1
     4     1    18    1
     5     2     3    1
     6     2     4    1
     7     2    14    1
     8     4     5    1
     9     4     8    2
    10     5     6    1
    11     5     7    1
    12     5    31    1
    13     8     9    1
    14     8    10    1
    15    10    11    1
    16    10    12    1
    17    10    13    1
    18    15    17    1
    19    18    19   ar
    20    18    20   ar
    21    19    21   ar
    22    19    22    1
    23    20    23   ar
    24    20    24    1
    25    21    25   ar
    26    21    26    1
    27    23    25   ar
    28    23    27    1
    29    25    28    1
    30    28    29   un
    31    28    30   un
    32    31    32    1
    33    31    33    1
    34    31    34    1
@<TRIPOS>SUBSTRUCTURE
     1 1           1 GROUP             0 ****  ****    0  
@<TRIPOS>MOLECULE
Molecule Name_00023
    34    34     1     0     0
SMALL
NO_CHARGES
****
Generated from the CSD

@<TRIPOS>ATOM
     1 C11      1.0011   0.3300   0.7635   C.3       1 1      0.0000
     2 C12      1.8399  -0.2987  -0.3946   C.3       1 1      0.0000
     3 H12A     1.4520   0.0633  -1.3523   H         1 1      0.0000
     4 C13      3.3052   0.0027  -0.2264   C.2       1 1      0.0000
     5 C14      4.2241  -1.1391   0.0980   C.3       1 1      0.0000
     6 H14A     3.7998  -1.6579   0.9715   H         1 1      0.0000
     7 H14B     5.1520  -0.6641   0.4510   H         1 1      0.0000
     8 N        3.7883   1.2098  -0.3497   N.pl3     1 1      0.0000
     9 HN       4.7958   1.3205  -0.1967   H         1 1      0.0000
    10 C        3.0618   2.4754  -0.6632   C.3       1 1      0.0000
    11 HA       3.7141   3.0941  -1.2840   H         1 1      0.0000
    12 HB       2.1427   2.2582  -1.2078   H         1 1      0.0000
    13 HC       2.8340   3.0040   0.2680   H         1 1      0.0000
    14 H12B     1.7014  -1.3821  -0.3601   H         1 1      0.0000
    15 O1       1.4369  -0.4365   1.9540   O.3       1 1      0.0000
    16 H11      1.2719   1.3851   0.8894   H         1 1      0.0000
    17 OH1      0.8945  -0.1976   2.7518   H         1 1      0.0000
    18 C10     -0.4822   0.2039   0.4846   C.ar      1 1      0.0000
    19 C5      -1.0270  -1.0466   0.1479   C.ar      1 1      0.0000
    20 C9      -1.3081   1.3358   0.5444   C.ar      1 1      0.0000
    21 C6      -2.3860  -1.1663  -0.1346   C.ar      1 1      0.0000
    22 H5      -0.3948  -1.9285   0.1254   H         1 1      0.0000
    23 C8      -2.6692   1.2285   0.2524   C.ar      1 1      0.0000
    24 H8      -0.8986   2.3024   0.8244   H         1 1      0.0000
    25 C7      -3.1837  -0.0220  -0.0840   C.ar      1 1      0.0000
    26 H6      -2.8294  -2.1199  -0.3910   H         1 1      0.0000
    27 H7      -3.3256   2.0884   0.2912   H         1 1      0.0000
    28 NO      -4.6202  -0.1412  -0.3923   N.pl3     1 1      0.0000
    29 ON2     -5.3342   0.9267  -0.3390   O.2       1 1      0.0000
    30 ON1     -5.0742  -1.3056  -0.6944   O.2       1 1      0.0000
    31 C15      4.5091  -2.1384  -1.0348   C.3       1 1      0.0000
    32 H15C     5.0139  -1.6629  -1.8850   H         1 1      0.0000
    33 H15A     5.1850  -2.9150  -0.6643   H         1 1      0.0000
    34 H15B     3.5999  -2.6484  -1.3774   H         1 1      0.0000
@<TRIPOS>BOND
     1     1     2    1
     2     1    15    1
     3     1    16    1
     4     1    18    1
     5     2     3    1
     6     2     4    1
     7     2    14    1
     8     4     5    1
     9     4     8    2
    10     5     6    1
    11     5     7    1
    12     5    31    1
    13     8     9    1
    14     8    10    1
    15    10    11    1
    16    10    12    1
    17    10    13    1
    18    15    17    1
    19    18    19   ar
    20    18    20   ar
    21    19    21   ar
    22    19    22    1
    23    20    23   ar
    24    20    24    1
    25    21    25   ar
    26    21    26    1
    27    23    25   ar
    28    23    27    1
    29    25    28    1
    30    28    29   un
    31    28    30   un
    32    31    32    1
    33    31    33    1
    34    31    34    1
@<TRIPOS>SUBSTRUCTURE
     1 1           1 GROUP             0 ****  ****    0  
@<TRIPOS>MOLECULE
Molecule Name_00024
    34    34     1     0     0
SMALL
NO_CHARGES
****
Generated from the CSD

@<TRIPOS>ATOM
     1 C11      0.9969   0.3956   0.7186   C.3       1 1      0.0000
     2 C12      1.8416  -0.2509  -0.4254   C.3       1 1      0.0000
     3 H12A     1.4493   0.0846  -1.3909   H         1 1      0.0000
     4 C13      3.3037   0.0700  -0.2655   C.2       1 1      0.0000
     5 C14      4.1254  -0.8218   0.6194   C.3       1 1      0.0000
     6 H14A     3.6126  -0.8739   1.5923   H         1 1      0.0000
     7 H14B     5.0561  -0.2624   0.7990   H         1 1      0.0000
     8 N        3.8647   1.0870  -0.8626   N.pl3     1 1      0.0000
     9 HN       4.8613   1.2379  -0.6766   H         1 1      0.0000
    10 C        3.2408   2.0912  -1.7737   C.3       1 1      0.0000
    11 HA       3.9758   2.3569  -2.5371   H         1 1      0.0000
    12 HB       2.3573   1.6688  -2.2529   H         1 1      0.0000
    13 HC       2.9700   2.9835  -1.2003   H         1 1      0.0000
    14 H12B     1.7147  -1.3346  -0.3657   H         1 1      0.0000
    15 O1       1.4563  -0.3243   1.9291   O.3       1 1      0.0000
    16 H11      1.2459   1.4595   0.8100   H         1 1      0.0000
    17 OH1      0.9139  -0.0723   2.7229   H         1 1      0.0000
    18 C10     -0.4851   0.2296   0.4539   C.ar      1 1      0.0000
    19 C5      -0.9187  -0.4499  -0.6968   C.ar      1 1      0.0000
    20 C9      -1.4238   0.7684   1.3458   C.ar      1 1      0.0000
    21 C6      -2.2800  -0.5851  -0.9604   C.ar      1 1      0.0000
    22 H5      -0.1946  -0.8895  -1.3756   H         1 1      0.0000
    23 C8      -2.7902   0.6479   1.0852   C.ar      1 1      0.0000
    24 H8      -1.0972   1.2770   2.2486   H         1 1      0.0000
    25 C7      -3.1938  -0.0260  -0.0657   C.ar      1 1      0.0000
    26 H6      -2.6379  -1.1090  -1.8374   H         1 1      0.0000
    27 H7      -3.5327   1.0564   1.7586   H         1 1      0.0000
    28 NO      -4.6352  -0.1569  -0.3452   N.pl3     1 1      0.0000
    29 ON2     -5.4573   0.3663   0.4935   O.2       1 1      0.0000
    30 ON1     -4.9849  -0.7877  -1.4097   O.2       1 1      0.0000
    31 C15      4.4211  -2.2347   0.0911   C.3       1 1      0.0000
    32 H15C     5.0098  -2.2126  -0.8344   H         1 1      0.0000
    33 H15A     5.0207  -2.7742   0.8304   H         1 1      0.0000
    34 H15B     3.5061  -2.8210  -0.0617   H         1 1      0.0000
@<TRIPOS>BOND
     1     1     2    1
     2     1    15    1
     3     1    16    1
     4     1    18    1
     5     2     3    1
     6     2     4    1
     7     2    14    1
     8     4     5    1
     9     4     8    2
    10     5     6    1
    11     5     7    1
    12     5    31    1
    13     8     9    1
    14     8    10    1
    15    10    11    1
    16    10    12    1
    17    10    13    1
    18    15    17    1
    19    18    19   ar
    20    18    20   ar
    21    19    21   ar
    22    19    22    1
    23    20    23   ar
    24    20    24    1
    25    21    25   ar
    26    21    26    1
    27    23    25   ar
    28    23    27    1
    29    25    28    1
    30    28    29   un
    31    28    30   un
    32    31    32    1
    33    31    33    1
    34    31    34    1
@<TRIPOS>SUBSTRUCTURE
     1 1           1 GROUP             0 ****  ****    0  
@<TRIPOS>MOLECULE
Molecule Name_00025
    34    34     1     0     0
SMALL
NO_CHARGES
****
Generated from the CSD

@<TRIPOS>ATOM
     1 C11      1.0814  -0.4168  -0.3691   C.3       1 1      0.0000
     2 C12      1.7957   0.6749   0.4900   C.3       1 1      0.0000
     3 H12A     1.3904   0.6496   1.5068   H         1 1      0.0000
     4 C13      3.2892   0.4867   0.4706   C.2       1 1      0.0000
     5 C14      3.8826  -0.5161   1.4170   C.3       1 1      0.0000
     6 H14A     3.5000  -0.2789   2.4218   H         1 1      0.0000
     7 H14B     4.9576  -0.2812   1.4407   H         1 1      0.0000
     8 N        4.0678   1.1628  -0.3307   N.pl3     1 1      0.0000
     9 HN       5.0739   0.9810  -0.2571   H         1 1      0.0000
    10 C        3.6927   2.1983  -1.3381   C.3       1 1      0.0000
    11 HA       4.3470   2.0785  -2.2049   H         1 1      0.0000
    12 HB       2.6553   2.0668  -1.6464   H         1 1      0.0000
    13 HC       3.8359   3.1941  -0.9065   H         1 1      0.0000
    14 H12B     1.5623   1.6502   0.0559   H         1 1      0.0000
    15 O1       1.5657  -0.1404  -1.7416   O.3       1 1      0.0000
    16 H11      1.4157  -1.4136  -0.0578   H         1 1      0.0000
    17 OH1      1.0987  -0.7113  -2.4077   H         1 1      0.0000
    18 C10     -0.4234  -0.3081  -0.2358   C.ar      1 1      0.0000
    19 C5      -0.9832   0.6827   0.5881   C.ar      1 1      0.0000
    20 C9      -1.2569  -1.2057  -0.9188   C.ar      1 1      0.0000
    21 C6      -2.3656   0.7734   0.7358   C.ar      1 1      0.0000
    22 H5      -0.3415   1.3943   1.0980   H         1 1      0.0000
    23 C8      -2.6430  -1.1303  -0.7689   C.ar      1 1      0.0000
    24 H8      -0.8329  -1.9614  -1.5741   H         1 1      0.0000
    25 C7      -3.1726  -0.1419   0.0582   C.ar      1 1      0.0000
    26 H6      -2.8200   1.5316   1.3605   H         1 1      0.0000
    27 H7      -3.3057  -1.8128  -1.2853   H         1 1      0.0000
    28 NO      -4.6355  -0.0571   0.2192   N.pl3     1 1      0.0000
    29 ON2     -5.3577  -0.9111  -0.4150   O.2       1 1      0.0000
    30 ON1     -5.1023   0.8663   0.9825   O.2       1 1      0.0000
    31 C15      3.6464  -1.9990   1.0881   C.3       1 1      0.0000
    32 H15C     3.9437  -2.2446   0.0609   H         1 1      0.0000
    33 H15A     4.2652  -2.6142   1.7482   H         1 1      0.0000
    34 H15B     2.6055  -2.3016   1.2585   H         1 1      0.0000
@<TRIPOS>BOND
     1     1     2    1
     2     1    15    1
     3     1    16    1
     4     1    18    1
     5     2     3    1
     6     2     4    1
     7     2    14    1
     8     4     5    1
     9     4     8    2
    10     5     6    1
    11     5     7    1
    12     5    31    1
    13     8     9    1
    14     8    10    1
    15    10    11    1
    16    10    12    1
    17    10    13    1
    18    15    17    1
    19    18    19   ar
    20    18    20   ar
    21    19    21   ar
    22    19    22    1
    23    20    23   ar
    24    20    24    1
    25    21    25   ar
    26    21    26    1
    27    23    25   ar
    28    23    27    1
    29    25    28    1
    30    28    29   un
    31    28    30   un
    32    31    32    1
    33    31    33    1
    34    31    34    1
@<TRIPOS>SUBSTRUCTURE
     1 1           1 GROUP             0 ****  ****    0  
@<TRIPOS>MOLECULE
Molecule Name_00026
    34    34     1     0     0
SMALL
NO_CHARGES
****
Generated from the CSD

@<TRIPOS>ATOM
     1 C11      0.9808   0.7301  -0.4231   C.3       1 1      0.0000
     2 C12      1.8455  -0.3698   0.2717   C.3       1 1      0.0000
     3 H12A     1.5043  -1.3549  -0.0628   H         1 1      0.0000
     4 C13      3.3110  -0.1560   0.0020   C.2       1 1      0.0000
     5 C14      3.8662  -0.6598  -1.2985   C.3       1 1      0.0000
     6 H14A     4.8407  -0.1691  -1.4463   H         1 1      0.0000
     7 H14B     3.1999  -0.2450  -2.0702   H         1 1      0.0000
     8 N        4.0980   0.4420   0.8555   N.pl3     1 1      0.0000
     9 HN       5.0855   0.5228   0.5930   H         1 1      0.0000
    10 C        3.7590   1.0117   2.1929   C.3       1 1      0.0000
    11 HA       4.3633   1.9099   2.3401   H         1 1      0.0000
    12 HB       2.7020   1.2754   2.2340   H         1 1      0.0000
    13 HC       3.9969   0.2792   2.9708   H         1 1      0.0000
    14 H12B     1.6761  -0.2998   1.3489   H         1 1      0.0000
    15 O1       1.3997   1.9752   0.2619   O.3       1 1      0.0000
    16 H11      1.2417   0.7928  -1.4862   H         1 1      0.0000
    17 OH1      0.8409   2.7460  -0.0232   H         1 1      0.0000
    18 C10     -0.4961   0.4331  -0.2670   C.ar      1 1      0.0000
    19 C5      -0.9092  -0.7158   0.4283   C.ar      1 1      0.0000
    20 C9      -1.4502   1.2927  -0.8307   C.ar      1 1      0.0000
    21 C6      -2.2652  -1.0094   0.5547   C.ar      1 1      0.0000
    22 H5      -0.1738  -1.3692   0.8869   H         1 1      0.0000
    23 C8      -2.8111   1.0016  -0.7191   C.ar      1 1      0.0000
    24 H8      -1.1398   2.1941  -1.3519   H         1 1      0.0000
    25 C7      -3.1942  -0.1467  -0.0290   C.ar      1 1      0.0000
    26 H6      -2.6075  -1.8855   1.0904   H         1 1      0.0000
    27 H7      -3.5651   1.6499  -1.1467   H         1 1      0.0000
    28 NO      -4.6298  -0.4583   0.0926   N.pl3     1 1      0.0000
    29 ON2     -5.4662   0.3513  -0.4534   O.2       1 1      0.0000
    30 ON1     -4.9606  -1.5196   0.7386   O.2       1 1      0.0000
    31 C15      4.0037  -2.1837  -1.4458   C.3       1 1      0.0000
    32 H15C     3.0326  -2.6913  -1.3908   H         1 1      0.0000
    33 H15A     4.4201  -2.4111  -2.4316   H         1 1      0.0000
    34 H15B     4.6918  -2.6121  -0.7061   H         1 1      0.0000
@<TRIPOS>BOND
     1     1     2    1
     2     1    15    1
     3     1    16    1
     4     1    18    1
     5     2     3    1
     6     2     4    1
     7     2    14    1
     8     4     5    1
     9     4     8    2
    10     5     6    1
    11     5     7    1
    12     5    31    1
    13     8     9    1
    14     8    10    1
    15    10    11    1
    16    10    12    1
    17    10    13    1
    18    15    17    1
    19    18    19   ar
    20    18    20   ar
    21    19    21   ar
    22    19    22    1
    23    20    23   ar
    24    20    24    1
    25    21    25   ar
    26    21    26    1
    27    23    25   ar
    28    23    27    1
    29    25    28    1
    30    28    29   un
    31    28    30   un
    32    31    32    1
    33    31    33    1
    34    31    34    1
@<TRIPOS>SUBSTRUCTURE
     1 1           1 GROUP             0 ****  ****    0  
@<TRIPOS>MOLECULE
Molecule Name_00027
    34    34     1     0     0
SMALL
NO_CHARGES
****
Generated from the CSD

@<TRIPOS>ATOM
     1 C11      0.9990   0.1339  -0.7952   C.3       1 1      0.0000
     2 C12      1.8511   0.1474   0.5139   C.3       1 1      0.0000
     3 H12A     1.5303  -0.6793   1.1561   H         1 1      0.0000
     4 C13      3.3226   0.0844   0.2020   C.2       1 1      0.0000
     5 C14      3.8050  -1.0258  -0.6856   C.3       1 1      0.0000
     6 H14A     4.8274  -0.7667  -1.0016   H         1 1      0.0000
     7 H14B     3.1829  -0.9552  -1.5908   H         1 1      0.0000
     8 N        4.1747   0.9523   0.6774   N.pl3     1 1      0.0000
     9 HN       5.1593   0.8159   0.4268   H         1 1      0.0000
    10 C        3.9139   2.1201   1.5696   C.3       1 1      0.0000
    11 HA       4.6911   2.8657   1.3856   H         1 1      0.0000
    12 HB       2.9376   2.5527   1.3496   H         1 1      0.0000
    13 HC       3.9576   1.7963   2.6143   H         1 1      0.0000
    14 H12B     1.6464   1.0838   1.0385   H         1 1      0.0000
    15 O1       1.3681   1.4082  -1.4545   O.3       1 1      0.0000
    16 H11      1.3037  -0.7070  -1.4295   H         1 1      0.0000
    17 OH1      0.8094   1.5692  -2.2605   H         1 1      0.0000
    18 C10     -0.4782   0.0352  -0.4757   C.ar      1 1      0.0000
    19 C5      -0.9976  -1.1487   0.0743   C.ar      1 1      0.0000
    20 C9      -1.3301   1.1163  -0.7447   C.ar      1 1      0.0000
    21 C6      -2.3594  -1.2565   0.3478   C.ar      1 1      0.0000
    22 H5      -0.3366  -1.9777   0.3067   H         1 1      0.0000
    23 C8      -2.6980   1.0145  -0.4845   C.ar      1 1      0.0000
    24 H8      -0.9331   2.0427  -1.1504   H         1 1      0.0000
    25 C7      -3.1886  -0.1724   0.0561   C.ar      1 1      0.0000
    26 H6      -2.7816  -2.1563   0.7766   H         1 1      0.0000
    27 H7      -3.3745   1.8354  -0.6848   H         1 1      0.0000
    28 NO      -4.6320  -0.2849   0.3336   N.pl3     1 1      0.0000
    29 ON2     -5.3753   0.7269   0.0564   O.2       1 1      0.0000
    30 ON1     -5.0617  -1.3869   0.8378   O.2       1 1      0.0000
    31 C15      3.7678  -2.4454  -0.0969   C.3       1 1      0.0000
    32 H15C     2.7461  -2.7632   0.1452   H         1 1      0.0000
    33 H15A     4.1467  -3.1511  -0.8422   H         1 1      0.0000
    34 H15B     4.4099  -2.5453   0.7874   H         1 1      0.0000
@<TRIPOS>BOND
     1     1     2    1
     2     1    15    1
     3     1    16    1
     4     1    18    1
     5     2     3    1
     6     2     4    1
     7     2    14    1
     8     4     5    1
     9     4     8    2
    10     5     6    1
    11     5     7    1
    12     5    31    1
    13     8     9    1
    14     8    10    1
    15    10    11    1
    16    10    12    1
    17    10    13    1
    18    15    17    1
    19    18    19   ar
    20    18    20   ar
    21    19    21   ar
    22    19    22    1
    23    20    23   ar
    24    20    24    1
    25    21    25   ar
    26    21    26    1
    27    23    25   ar
    28    23    27    1
    29    25    28    1
    30    28    29   un
    31    28    30   un
    32    31    32    1
    33    31    33    1
    34    31    34    1
@<TRIPOS>SUBSTRUCTURE
     1 1           1 GROUP             0 ****  ****    0  
@<TRIPOS>MOLECULE
Molecule Name_00028
    34    34     1     0     0
SMALL
NO_CHARGES
****
Generated from the CSD

@<TRIPOS>ATOM
     1 C11      1.0551  -0.2255  -0.5439   C.3       1 1      0.0000
     2 C12      1.8133   0.2091   0.7509   C.3       1 1      0.0000
     3 H12A     1.4218  -0.3596   1.6006   H         1 1      0.0000
     4 C13      3.3002   0.0367   0.5904   C.2       1 1      0.0000
     5 C14      3.8065  -1.3004   0.1331   C.3       1 1      0.0000
     6 H14A     3.2840  -2.0652   0.7282   H         1 1      0.0000
     7 H14B     4.8574  -1.3314   0.4584   H         1 1      0.0000
     8 N        4.1455   1.0011   0.8374   N.pl3     1 1      0.0000
     9 HN       5.1401   0.7830   0.7197   H         1 1      0.0000
    10 C        3.8618   2.3920   1.2986   C.3       1 1      0.0000
    11 HA       4.7682   2.7840   1.7661   H         1 1      0.0000
    12 HB       3.5893   3.0223   0.4518   H         1 1      0.0000
    13 HC       3.0502   2.3731   2.0329   H         1 1      0.0000
    14 H12B     1.6024   1.2671   0.9247   H         1 1      0.0000
    15 O1       1.5315   0.7433  -1.5584   O.3       1 1      0.0000
    16 H11      1.3618  -1.2376  -0.8333   H         1 1      0.0000
    17 OH1      1.0390   0.6359  -2.4150   H         1 1      0.0000
    18 C10     -0.4439  -0.1771  -0.3325   C.ar      1 1      0.0000
    19 C5      -1.0579  -1.0942   0.5369   C.ar      1 1      0.0000
    20 C9      -1.2208   0.7692  -1.0165   C.ar      1 1      0.0000
    21 C6      -2.4392  -1.0725   0.7176   C.ar      1 1      0.0000
    22 H5      -0.4563  -1.8111   1.0865   H         1 1      0.0000
    23 C8      -2.6069   0.7922  -0.8508   C.ar      1 1      0.0000
    24 H8      -0.7515   1.4953  -1.6744   H         1 1      0.0000
    25 C7      -3.1918  -0.1316   0.0130   C.ar      1 1      0.0000
    26 H6      -2.9340  -1.7653   1.3861   H         1 1      0.0000
    27 H7      -3.2267   1.5127  -1.3690   H         1 1      0.0000
    28 NO      -4.6548  -0.1111   0.1924   N.pl3     1 1      0.0000
    29 ON2     -5.3263   0.7646  -0.4673   O.2       1 1      0.0000
    30 ON1     -5.1722  -0.9686   0.9987   O.2       1 1      0.0000
    31 C15      3.6815  -1.6088  -1.3677   C.3       1 1      0.0000
    32 H15C     3.4082  -0.7192  -1.9488   H         1 1      0.0000
    33 H15A     4.6524  -1.9431  -1.7456   H         1 1      0.0000
    34 H15B     2.9691  -2.4192  -1.5673   H         1 1      0.0000
@<TRIPOS>BOND
     1     1     2    1
     2     1    15    1
     3     1    16    1
     4     1    18    1
     5     2     3    1
     6     2     4    1
     7     2    14    1
     8     4     5    1
     9     4     8    2
    10     5     6    1
    11     5     7    1
    12     5    31    1
    13     8     9    1
    14     8    10    1
    15    10    11    1
    16    10    12    1
    17    10    13    1
    18    15    17    1
    19    18    19   ar
    20    18    20   ar
    21    19    21   ar
    22    19    22    1
    23    20    23   ar
    24    20    24    1
    25    21    25   ar
    26    21    26    1
    27    23    25   ar
    28    23    27    1
    29    25    28    1
    30    28    29   un
    31    28    30   un
    32    31    32    1
    33    31    33    1
    34    31    34    1
@<TRIPOS>SUBSTRUCTURE
     1 1           1 GROUP             0 ****  ****    0  
@<TRIPOS>MOLECULE
Molecule Name_00029
    34    34     1     0     0
SMALL
NO_CHARGES
****
Generated from the CSD

@<TRIPOS>ATOM
     1 C11      0.9981   0.0745   0.7989   C.3       1 1      0.0000
     2 C12      1.8590  -0.1471  -0.4857   C.3       1 1      0.0000
     3 H12A     1.4773   0.4960  -1.2854   H         1 1      0.0000
     4 C13      3.3179   0.0994  -0.2081   C.2       1 1      0.0000
     5 C14      4.2486  -1.0777  -0.2477   C.3       1 1      0.0000
     6 H14A     3.8214  -1.8505   0.4099   H         1 1      0.0000
     7 H14B     5.1657  -0.7303   0.2518   H         1 1      0.0000
     8 N        3.7856   1.2878   0.0646   N.pl3     1 1      0.0000
     9 HN       4.7896   1.3538   0.2603   H         1 1      0.0000
    10 C        3.0454   2.5806   0.1568   C.3       1 1      0.0000
    11 HA       3.6963   3.3702  -0.2261   H         1 1      0.0000
    12 HB       2.1358   2.5385  -0.4427   H         1 1      0.0000
    13 HC       2.7995   2.7849   1.2037   H         1 1      0.0000
    14 H12B     1.7350  -1.1868  -0.7981   H         1 1      0.0000
    15 O1       1.4305  -1.0255   1.6920   O.3       1 1      0.0000
    16 H11      1.2528   1.0378   1.2564   H         1 1      0.0000
    17 OH1      0.8756  -1.0568   2.5159   H         1 1      0.0000
    18 C10     -0.4799   0.0293   0.4715   C.ar      1 1      0.0000
    19 C5      -1.0583   1.0539  -0.2964   C.ar      1 1      0.0000
    20 C9      -1.2744  -1.0234   0.9486   C.ar      1 1      0.0000
    21 C6      -2.4220   1.0327  -0.5808   C.ar      1 1      0.0000
    22 H5      -0.4411   1.8563  -0.6879   H         1 1      0.0000
    23 C8      -2.6440  -1.0482   0.6785   C.ar      1 1      0.0000
    24 H8      -0.8311  -1.8304   1.5253   H         1 1      0.0000
    25 C7      -3.1938  -0.0173  -0.0808   C.ar      1 1      0.0000
    26 H6      -2.8889   1.8078  -1.1748   H         1 1      0.0000
    27 H7      -3.2768  -1.8498   1.0370   H         1 1      0.0000
    28 NO      -4.6392  -0.0390  -0.3698   N.pl3     1 1      0.0000
    29 ON2     -5.3290  -1.0163   0.1015   O.2       1 1      0.0000
    30 ON1     -5.1238   0.9191  -1.0771   O.2       1 1      0.0000
    31 C15      4.5607  -1.6640  -1.6341   C.3       1 1      0.0000
    32 H15C     5.0687  -0.9390  -2.2821   H         1 1      0.0000
    33 H15A     5.2428  -2.5116  -1.5181   H         1 1      0.0000
    34 H15B     3.6627  -2.0478  -2.1345   H         1 1      0.0000
@<TRIPOS>BOND
     1     1     2    1
     2     1    15    1
     3     1    16    1
     4     1    18    1
     5     2     3    1
     6     2     4    1
     7     2    14    1
     8     4     5    1
     9     4     8    2
    10     5     6    1
    11     5     7    1
    12     5    31    1
    13     8     9    1
    14     8    10    1
    15    10    11    1
    16    10    12    1
    17    10    13    1
    18    15    17    1
    19    18    19   ar
    20    18    20   ar
    21    19    21   ar
    22    19    22    1
    23    20    23   ar
    24    20    24    1
    25    21    25   ar
    26    21    26    1
    27    23    25   ar
    28    23    27    1
    29    25    28    1
    30    28    29   un
    31    28    30   un
    32    31    32    1
    33    31    33    1
    34    31    34    1
@<TRIPOS>SUBSTRUCTURE
     1 1           1 GROUP             0 ****  ****    0  
@<TRIPOS>MOLECULE
Molecule Name_00030
    34    34     1     0     0
SMALL
NO_CHARGES
****
Generated from the CSD

@<TRIPOS>ATOM
     1 C11      1.2246  -0.3244  -1.8259   C.3       1 1      0.0000
     2 C12      2.2776   0.5857  -1.1167   C.3       1 1      0.0000
     3 H12A     1.9454   1.6273  -1.1759   H         1 1      0.0000
     4 C13      2.5050   0.1435   0.3042   C.2       1 1      0.0000
     5 C14      2.8329  -1.3013   0.5457   C.3       1 1      0.0000
     6 H14A     3.7172  -1.5392  -0.0655   H         1 1      0.0000
     7 H14B     1.9974  -1.8600   0.0970   H         1 1      0.0000
     8 N        2.4226   0.9679   1.3137   N.pl3     1 1      0.0000
     9 HN       2.5730   0.5703   2.2464   H         1 1      0.0000
    10 C        2.1103   2.4274   1.3002   C.3       1 1      0.0000
    11 HA       2.7005   2.9061   2.0852   H         1 1      0.0000
    12 HB       2.3724   2.8607   0.3347   H         1 1      0.0000
    13 HC       1.0446   2.5730   1.5035   H         1 1      0.0000
    14 H12B     3.2197   0.4985  -1.6633   H         1 1      0.0000
    15 O1       1.1910   0.2077  -3.2082   O.3       1 1      0.0000
    16 H11      1.5796  -1.3617  -1.8425   H         1 1      0.0000
    17 OH1      0.4743  -0.2273  -3.7419   H         1 1      0.0000
    18 C10     -0.1157  -0.2450  -1.1250   C.ar      1 1      0.0000
    19 C5      -0.6938   1.0079  -0.8603   C.ar      1 1      0.0000
    20 C9      -0.7708  -1.4185  -0.7242   C.ar      1 1      0.0000
    21 C6      -1.9143   1.0904  -0.1936   C.ar      1 1      0.0000
    22 H5      -0.2010   1.9165  -1.1915   H         1 1      0.0000
    23 C8      -1.9889  -1.3463  -0.0458   C.ar      1 1      0.0000
    24 H8      -0.3408  -2.3918  -0.9435   H         1 1      0.0000
    25 C7      -2.5383  -0.0914   0.2090   C.ar      1 1      0.0000
    26 H6      -2.3817   2.0439   0.0165   H         1 1      0.0000
    27 H7      -2.5121  -2.2384   0.2738   H         1 1      0.0000
    28 NO      -3.8248  -0.0094   0.9241   N.pl3     1 1      0.0000
    29 ON2     -4.3801  -1.1116   1.2848   O.2       1 1      0.0000
    30 ON1     -4.3159   1.1584   1.1432   O.2       1 1      0.0000
    31 C15      3.0601  -1.7223   2.0066   C.3       1 1      0.0000
    32 H15C     2.1622  -1.5779   2.6203   H         1 1      0.0000
    33 H15A     3.2920  -2.7911   2.0383   H         1 1      0.0000
    34 H15B     3.9117  -1.2009   2.4615   H         1 1      0.0000
@<TRIPOS>BOND
     1     1     2    1
     2     1    15    1
     3     1    16    1
     4     1    18    1
     5     2     3    1
     6     2     4    1
     7     2    14    1
     8     4     5    1
     9     4     8    2
    10     5     6    1
    11     5     7    1
    12     5    31    1
    13     8     9    1
    14     8    10    1
    15    10    11    1
    16    10    12    1
    17    10    13    1
    18    15    17    1
    19    18    19   ar
    20    18    20   ar
    21    19    21   ar
    22    19    22    1
    23    20    23   ar
    24    20    24    1
    25    21    25   ar
    26    21    26    1
    27    23    25   ar
    28    23    27    1
    29    25    28    1
    30    28    29   un
    31    28    30   un
    32    31    32    1
    33    31    33    1
    34    31    34    1
@<TRIPOS>SUBSTRUCTURE
     1 1           1 GROUP             0 ****  ****    0  
@<TRIPOS>MOLECULE
Molecule Name_00031
    34    34     1     0     0
SMALL
NO_CHARGES
****
Generated from the CSD

@<TRIPOS>ATOM
     1 C11      1.0253   0.1816   0.5642   C.3       1 1      0.0000
     2 C12      1.7601   0.0270  -0.8055   C.3       1 1      0.0000
     3 H12A     1.4308   0.8254  -1.4784   H         1 1      0.0000
     4 C13      3.2541   0.0226  -0.6201   C.2       1 1      0.0000
     5 C14      3.9160  -1.2823  -0.2847   C.3       1 1      0.0000
     6 H14A     4.7592  -1.4063  -0.9817   H         1 1      0.0000
     7 H14B     3.1801  -2.0524  -0.5620   H         1 1      0.0000
     8 N        3.9754   1.1048  -0.7380   N.pl3     1 1      0.0000
     9 HN       4.9824   1.0074  -0.5732   H         1 1      0.0000
    10 C        3.5271   2.4915  -1.0603   C.3       1 1      0.0000
    11 HA       4.2993   2.9619  -1.6736   H         1 1      0.0000
    12 HB       2.5893   2.4657  -1.6157   H         1 1      0.0000
    13 HC       3.4016   3.0580  -0.1320   H         1 1      0.0000
    14 H12B     1.4608  -0.9292  -1.2415   H         1 1      0.0000
    15 O1       1.5761  -0.9306   1.3732   O.3       1 1      0.0000
    16 H11      1.2961   1.1382   1.0265   H         1 1      0.0000
    17 OH1      1.1070  -1.0047   2.2462   H         1 1      0.0000
    18 C10     -0.4761   0.0987   0.3827   C.ar      1 1      0.0000
    19 C5      -1.0373  -0.9796  -0.3219   C.ar      1 1      0.0000
    20 C9      -1.3041   1.1051   0.9007   C.ar      1 1      0.0000
    21 C6      -2.4153  -1.0501  -0.5148   C.ar      1 1      0.0000
    22 H5      -0.4012  -1.7725  -0.7021   H         1 1      0.0000
    23 C8      -2.6852   1.0495   0.7033   C.ar      1 1      0.0000
    24 H8      -0.8801   1.9313   1.4646   H         1 1      0.0000
    25 C7      -3.2161  -0.0277  -0.0034   C.ar      1 1      0.0000
    26 H6      -2.8710  -1.8737  -1.0494   H         1 1      0.0000
    27 H7      -3.3436   1.8151   1.0931   H         1 1      0.0000
    28 NO      -4.6737  -0.0920  -0.2139   N.pl3     1 1      0.0000
    29 ON2     -5.3902   0.8614   0.2666   O.2       1 1      0.0000
    30 ON1     -5.1421  -1.0978  -0.8636   O.2       1 1      0.0000
    31 C15      4.3874  -1.4635   1.1672   C.3       1 1      0.0000
    32 H15C     3.9217  -2.3345   1.6449   H         1 1      0.0000
    33 H15A     5.4666  -1.6438   1.1724   H         1 1      0.0000
    34 H15B     4.2143  -0.5665   1.7751   H         1 1      0.0000
@<TRIPOS>BOND
     1     1     2    1
     2     1    15    1
     3     1    16    1
     4     1    18    1
     5     2     3    1
     6     2     4    1
     7     2    14    1
     8     4     5    1
     9     4     8    2
    10     5     6    1
    11     5     7    1
    12     5    31    1
    13     8     9    1
    14     8    10    1
    15    10    11    1
    16    10    12    1
    17    10    13    1
    18    15    17    1
    19    18    19   ar
    20    18    20   ar
    21    19    21   ar
    22    19    22    1
    23    20    23   ar
    24    20    24    1
    25    21    25   ar
    26    21    26    1
    27    23    25   ar
    28    23    27    1
    29    25    28    1
    30    28    29   un
    31    28    30   un
    32    31    32    1
    33    31    33    1
    34    31    34    1
@<TRIPOS>SUBSTRUCTURE
     1 1           1 GROUP             0 ****  ****    0  
@<TRIPOS>MOLECULE
Molecule Name_00032
    34    34     1     0     0
SMALL
NO_CHARGES
****
Generated from the CSD

@<TRIPOS>ATOM
     1 C11      0.9574   0.0219   0.7303   C.3       1 1      0.0000
     2 C12      1.7379  -0.3775  -0.5626   C.3       1 1      0.0000
     3 H12A     1.3152   0.1640  -1.4152   H         1 1      0.0000
     4 C13      3.2130  -0.1222  -0.4043   C.2       1 1      0.0000
     5 C14      4.0418  -1.1837   0.2589   C.3       1 1      0.0000
     6 H14A     3.8623  -2.1228  -0.2870   H         1 1      0.0000
     7 H14B     3.5857  -1.3200   1.2512   H         1 1      0.0000
     8 N        3.7793   0.9794  -0.8180   N.pl3     1 1      0.0000
     9 HN       4.7858   1.0720  -0.6475   H         1 1      0.0000
    10 C        3.1502   2.1524  -1.4934   C.3       1 1      0.0000
    11 HA       3.8639   2.5455  -2.2213   H         1 1      0.0000
    12 HB       2.2387   1.8476  -2.0081   H         1 1      0.0000
    13 HC       2.9249   2.9228  -0.7491   H         1 1      0.0000
    14 H12B     1.5858  -1.4464  -0.7303   H         1 1      0.0000
    15 O1       1.3782  -1.0044   1.7123   O.3       1 1      0.0000
    16 H11      1.2848   1.0108   1.0726   H         1 1      0.0000
    17 OH1      0.8659  -0.9203   2.5597   H         1 1      0.0000
    18 C10     -0.5360   0.0274   0.4781   C.ar      1 1      0.0000
    19 C5      -1.1517  -1.0936  -0.1036   C.ar      1 1      0.0000
    20 C9      -1.3011   1.1557   0.8076   C.ar      1 1      0.0000
    21 C6      -2.5207  -1.0867  -0.3618   C.ar      1 1      0.0000
    22 H5      -0.5663  -1.9774  -0.3364   H         1 1      0.0000
    23 C8      -2.6718   1.1769   0.5428   C.ar      1 1      0.0000
    24 H8      -0.8365   2.0184   1.2768   H         1 1      0.0000
    25 C7      -3.2570   0.0544  -0.0395   C.ar      1 1      0.0000
    26 H6      -3.0180  -1.9404  -0.8041   H         1 1      0.0000
    27 H7      -3.2820   2.0368   0.7876   H         1 1      0.0000
    28 NO      -4.7040   0.0709  -0.3203   N.pl3     1 1      0.0000
    29 ON2     -5.0784  -0.0819  -1.5408   O.2       1 1      0.0000
    30 ON1     -5.5055   0.2387   0.6710   O.2       1 1      0.0000
    31 C15      5.5499  -0.9092   0.3750   C.3       1 1      0.0000
    32 H15C     5.7607  -0.0257   0.9904   H         1 1      0.0000
    33 H15A     6.0302  -1.7578   0.8712   H         1 1      0.0000
    34 H15B     6.0298  -0.8044  -0.6063   H         1 1      0.0000
@<TRIPOS>BOND
     1     1     2    1
     2     1    15    1
     3     1    16    1
     4     1    18    1
     5     2     3    1
     6     2     4    1
     7     2    14    1
     8     4     5    1
     9     4     8    2
    10     5     6    1
    11     5     7    1
    12     5    31    1
    13     8     9    1
    14     8    10    1
    15    10    11    1
    16    10    12    1
    17    10    13    1
    18    15    17    1
    19    18    19   ar
    20    18    20   ar
    21    19    21   ar
    22    19    22    1
    23    20    23   ar
    24    20    24    1
    25    21    25   ar
    26    21    26    1
    27    23    25   ar
    28    23    27    1
    29    25    28    1
    30    28    29   un
    31    28    30   un
    32    31    32    1
    33    31    33    1
    34    31    34    1
@<TRIPOS>SUBSTRUCTURE
     1 1           1 GROUP             0 ****  ****    0  
@<TRIPOS>MOLECULE
Molecule Name_00033
    34    34     1     0     0
SMALL
NO_CHARGES
****
Generated from the CSD

@<TRIPOS>ATOM
     1 C11      0.9466  -0.2939  -0.6344   C.3       1 1      0.0000
     2 C12      1.7204   0.2991   0.5861   C.3       1 1      0.0000
     3 H12A     1.3072  -0.1219   1.5084   H         1 1      0.0000
     4 C13      3.1997   0.0486   0.4620   C.2       1 1      0.0000
     5 C14      3.7228  -1.2922   0.8887   C.3       1 1      0.0000
     6 H14A     3.1679  -2.0528   0.3179   H         1 1      0.0000
     7 H14B     3.3973  -1.4032   1.9342   H         1 1      0.0000
     8 N        4.0247   0.9516   0.0045   N.pl3     1 1      0.0000
     9 HN       5.0172   0.6967  -0.0235   H         1 1      0.0000
    10 C        3.7221   2.3348  -0.4678   C.3       1 1      0.0000
    11 HA       4.3922   2.5613  -1.3004   H         1 1      0.0000
    12 HB       2.6880   2.4001  -0.8070   H         1 1      0.0000
    13 HC       3.8985   3.0440   0.3472   H         1 1      0.0000
    14 H12B     1.5503   1.3784   0.5998   H         1 1      0.0000
    15 O1       1.4043   0.5442  -1.7671   O.3       1 1      0.0000
    16 H11      1.2542  -1.3330  -0.8014   H         1 1      0.0000
    17 OH1      0.9006   0.3306  -2.5968   H         1 1      0.0000
    18 C10     -0.5495  -0.2245  -0.4092   C.ar      1 1      0.0000
    19 C5      -1.1450   0.9912  -0.0331   C.ar      1 1      0.0000
    20 C9      -1.3376  -1.3751  -0.5580   C.ar      1 1      0.0000
    21 C6      -2.5169   1.0575   0.2004   C.ar      1 1      0.0000
    22 H5      -0.5413   1.8885   0.0584   H         1 1      0.0000
    23 C8      -2.7115  -1.3217  -0.3158   C.ar      1 1      0.0000
    24 H8      -0.8882  -2.3141  -0.8689   H         1 1      0.0000
    25 C7      -3.2766  -0.1051   0.0613   C.ar      1 1      0.0000
    26 H6      -2.9987   1.9838   0.4857   H         1 1      0.0000
    27 H7      -3.3393  -2.1969  -0.4234   H         1 1      0.0000
    28 NO      -4.7269  -0.0428   0.3173   N.pl3     1 1      0.0000
    29 ON2     -5.1126   0.3203   1.4889   O.2       1 1      0.0000
    30 ON1     -5.5199  -0.3566  -0.6449   O.2       1 1      0.0000
    31 C15      5.2374  -1.5168   0.7529   C.3       1 1      0.0000
    32 H15C     5.8133  -0.8271   1.3824   H         1 1      0.0000
    33 H15A     5.4804  -2.5279   1.0933   H         1 1      0.0000
    34 H15B     5.5764  -1.4443  -0.2883   H         1 1      0.0000
@<TRIPOS>BOND
     1     1     2    1
     2     1    15    1
     3     1    16    1
     4     1    18    1
     5     2     3    1
     6     2     4    1
     7     2    14    1
     8     4     5    1
     9     4     8    2
    10     5     6    1
    11     5     7    1
    12     5    31    1
    13     8     9    1
    14     8    10    1
    15    10    11    1
    16    10    12    1
    17    10    13    1
    18    15    17    1
    19    18    19   ar
    20    18    20   ar
    21    19    21   ar
    22    19    22    1
    23    20    23   ar
    24    20    24    1
    25    21    25   ar
    26    21    26    1
    27    23    25   ar
    28    23    27    1
    29    25    28    1
    30    28    29   un
    31    28    30   un
    32    31    32    1
    33    31    33    1
    34    31    34    1
@<TRIPOS>SUBSTRUCTURE
     1 1           1 GROUP             0 ****  ****    0  
@<TRIPOS>MOLECULE
Molecule Name_00034
    34    34     1     0     0
SMALL
NO_CHARGES
****
Generated from the CSD

@<TRIPOS>ATOM
     1 C11      1.2223  -1.6584   0.6177   C.3       1 1      0.0000
     2 C12      2.2809  -1.1254  -0.4000   C.3       1 1      0.0000
     3 H12A     1.9174  -1.3027  -1.4175   H         1 1      0.0000
     4 C13      2.5853   0.3279  -0.1522   C.2       1 1      0.0000
     5 C14      3.0238   0.7281   1.2265   C.3       1 1      0.0000
     6 H14A     3.9072   0.1196   1.4746   H         1 1      0.0000
     7 H14B     2.2201   0.3778   1.8919   H         1 1      0.0000
     8 N        2.4765   1.2332  -1.0871   N.pl3     1 1      0.0000
     9 HN       2.6852   2.2002  -0.8184   H         1 1      0.0000
    10 C        2.0599   1.0568  -2.5095   C.3       1 1      0.0000
    11 HA       2.6378   1.7551  -3.1195   H         1 1      0.0000
    12 HB       2.2607   0.0369  -2.8380   H         1 1      0.0000
    13 HC       0.9931   1.2825  -2.6065   H         1 1      0.0000
    14 H12B     3.1991  -1.7016  -0.2626   H         1 1      0.0000
    15 O1       1.2178  -3.1190   0.3701   O.3       1 1      0.0000
    16 H11      1.5594  -1.4629   1.6426   H         1 1      0.0000
    17 OH1      0.5012  -3.5683   0.8921   H         1 1      0.0000
    18 C10     -0.1262  -1.0105   0.3815   C.ar      1 1      0.0000
    19 C5      -0.3265   0.3356   0.7304   C.ar      1 1      0.0000
    20 C9      -1.1789  -1.7569  -0.1676   C.ar      1 1      0.0000
    21 C6      -1.5711   0.9318   0.5396   C.ar      1 1      0.0000
    22 H5       0.4935   0.9224   1.1322   H         1 1      0.0000
    23 C8      -2.4330  -1.1720  -0.3526   C.ar      1 1      0.0000
    24 H8      -1.0264  -2.7923  -0.4594   H         1 1      0.0000
    25 C7      -2.6070   0.1631   0.0066   C.ar      1 1      0.0000
    26 H6      -1.7478   1.9686   0.7956   H         1 1      0.0000
    27 H7      -3.2603  -1.7287  -0.7737   H         1 1      0.0000
    28 NO      -3.9288   0.7860  -0.1876   N.pl3     1 1      0.0000
    29 ON2     -4.8670   0.0577  -0.6801   O.2       1 1      0.0000
    30 ON1     -4.0648   2.0204   0.1453   O.2       1 1      0.0000
    31 C15      3.3184   2.2201   1.4508   C.3       1 1      0.0000
    32 H15C     2.4283   2.8426   1.2958   H         1 1      0.0000
    33 H15A     3.6284   2.3707   2.4892   H         1 1      0.0000
    34 H15B     4.1411   2.5804   0.8204   H         1 1      0.0000
@<TRIPOS>BOND
     1     1     2    1
     2     1    15    1
     3     1    16    1
     4     1    18    1
     5     2     3    1
     6     2     4    1
     7     2    14    1
     8     4     5    1
     9     4     8    2
    10     5     6    1
    11     5     7    1
    12     5    31    1
    13     8     9    1
    14     8    10    1
    15    10    11    1
    16    10    12    1
    17    10    13    1
    18    15    17    1
    19    18    19   ar
    20    18    20   ar
    21    19    21   ar
    22    19    22    1
    23    20    23   ar
    24    20    24    1
    25    21    25   ar
    26    21    26    1
    27    23    25   ar
    28    23    27    1
    29    25    28    1
    30    28    29   un
    31    28    30   un
    32    31    32    1
    33    31    33    1
    34    31    34    1
@<TRIPOS>SUBSTRUCTURE
     1 1           1 GROUP             0 ****  ****    0  
@<TRIPOS>MOLECULE
Molecule Name_00035
    34    34     1     0     0
SMALL
NO_CHARGES
****
Generated from the CSD

@<TRIPOS>ATOM
     1 C11      0.9385   0.0743  -0.7593   C.3       1 1      0.0000
     2 C12      1.7289  -0.5641   0.4272   C.3       1 1      0.0000
     3 H12A     1.4572  -1.6216   0.5081   H         1 1      0.0000
     4 C13      3.2120  -0.3718   0.2544   C.2       1 1      0.0000
     5 C14      3.9446  -1.3300  -0.6391   C.3       1 1      0.0000
     6 H14A     3.4490  -1.2998  -1.6218   H         1 1      0.0000
     7 H14B     3.7289  -2.3260  -0.2234   H         1 1      0.0000
     8 N        3.8662   0.5868   0.8532   N.pl3     1 1      0.0000
     9 HN       4.8776   0.6253   0.6911   H         1 1      0.0000
    10 C        3.3415   1.6365   1.7755   C.3       1 1      0.0000
    11 HA       3.9007   2.5571   1.5921   H         1 1      0.0000
    12 HB       2.2825   1.8118   1.5847   H         1 1      0.0000
    13 HC       3.4915   1.3178   2.8119   H         1 1      0.0000
    14 H12B     1.4179  -0.0625   1.3468   H         1 1      0.0000
    15 O1       1.4696   1.4560  -0.8176   O.3       1 1      0.0000
    16 H11      1.1796  -0.4492  -1.6921   H         1 1      0.0000
    17 OH1      1.0649   1.9636  -1.5702   H         1 1      0.0000
    18 C10     -0.5534   0.0204  -0.5039   C.ar      1 1      0.0000
    19 C5      -1.3673   1.1022  -0.8798   C.ar      1 1      0.0000
    20 C9      -1.1200  -1.0990   0.1230   C.ar      1 1      0.0000
    21 C6      -2.7368   1.0710  -0.6257   C.ar      1 1      0.0000
    22 H5      -0.9353   1.9587  -1.3876   H         1 1      0.0000
    23 C8      -2.4895  -1.1353   0.3921   C.ar      1 1      0.0000
    24 H8      -0.5010  -1.9485   0.3979   H         1 1      0.0000
    25 C7      -3.2737  -0.0473   0.0139   C.ar      1 1      0.0000
    26 H6      -3.3846   1.8900  -0.9110   H         1 1      0.0000
    27 H7      -2.9486  -1.9881   0.8756   H         1 1      0.0000
    28 NO      -4.7204  -0.0809   0.2947   N.pl3     1 1      0.0000
    29 ON2     -5.1914  -1.1216   0.8847   O.2       1 1      0.0000
    30 ON1     -5.4254   0.9312  -0.0682   O.2       1 1      0.0000
    31 C15      5.4582  -1.1097  -0.7933   C.3       1 1      0.0000
    32 H15C     5.9891  -1.2224   0.1601   H         1 1      0.0000
    33 H15A     5.8627  -1.8698  -1.4684   H         1 1      0.0000
    34 H15B     5.6927  -0.1348  -1.2389   H         1 1      0.0000
@<TRIPOS>BOND
     1     1     2    1
     2     1    15    1
     3     1    16    1
     4     1    18    1
     5     2     3    1
     6     2     4    1
     7     2    14    1
     8     4     5    1
     9     4     8    2
    10     5     6    1
    11     5     7    1
    12     5    31    1
    13     8     9    1
    14     8    10    1
    15    10    11    1
    16    10    12    1
    17    10    13    1
    18    15    17    1
    19    18    19   ar
    20    18    20   ar
    21    19    21   ar
    22    19    22    1
    23    20    23   ar
    24    20    24    1
    25    21    25   ar
    26    21    26    1
    27    23    25   ar
    28    23    27    1
    29    25    28    1
    30    28    29   un
    31    28    30   un
    32    31    32    1
    33    31    33    1
    34    31    34    1
@<TRIPOS>SUBSTRUCTURE
     1 1           1 GROUP             0 ****  ****    0  
@<TRIPOS>MOLECULE
Molecule Name_00036
    34    34     1     0     0
SMALL
NO_CHARGES
****
Generated from the CSD

@<TRIPOS>ATOM
     1 C11      0.9468  -0.0698   0.6792   C.3       1 1      0.0000
     2 C12      1.7198   0.2916  -0.6292   C.3       1 1      0.0000
     3 H12A     1.4361   1.3015  -0.9429   H         1 1      0.0000
     4 C13      3.2064   0.1556  -0.4341   C.2       1 1      0.0000
     5 C14      3.8326  -1.1785  -0.7195   C.3       1 1      0.0000
     6 H14A     3.5508  -1.4552  -1.7472   H         1 1      0.0000
     7 H14B     3.3046  -1.8855  -0.0615   H         1 1      0.0000
     8 N        3.9508   1.1484  -0.0273   N.pl3     1 1      0.0000
     9 HN       4.9498   0.9544   0.0964   H         1 1      0.0000
    10 C        3.5391   2.5424   0.3119   C.3       1 1      0.0000
    11 HA       4.3400   3.2165  -0.0008   H         1 1      0.0000
    12 HB       2.6202   2.8032  -0.2138   H         1 1      0.0000
    13 HC       3.3926   2.6252   1.3936   H         1 1      0.0000
    14 H12B     1.4059  -0.4066  -1.4089   H         1 1      0.0000
    15 O1       1.4545  -1.4212   1.0120   O.3       1 1      0.0000
    16 H11      1.2194   0.6296   1.4784   H         1 1      0.0000
    17 OH1      1.0437  -1.7615   1.8505   H         1 1      0.0000
    18 C10     -0.5496  -0.0367   0.4476   C.ar      1 1      0.0000
    19 C5      -1.3726  -1.0027   1.0505   C.ar      1 1      0.0000
    20 C9      -1.1118   0.9451  -0.3813   C.ar      1 1      0.0000
    21 C6      -2.7470  -0.9942   0.8224   C.ar      1 1      0.0000
    22 H5      -0.9433  -1.7482   1.7122   H         1 1      0.0000
    23 C8      -2.4864   0.9557  -0.6250   C.ar      1 1      0.0000
    24 H8      -0.4851   1.7082  -0.8344   H         1 1      0.0000
    25 C7      -3.2798  -0.0166  -0.0194   C.ar      1 1      0.0000
    26 H6      -3.4017  -1.7247   1.2800   H         1 1      0.0000
    27 H7      -2.9423   1.7030  -1.2618   H         1 1      0.0000
    28 NO      -4.7320  -0.0094  -0.2725   N.pl3     1 1      0.0000
    29 ON2     -5.1991   0.9008  -1.0513   O.2       1 1      0.0000
    30 ON1     -5.4453  -0.9121   0.3013   O.2       1 1      0.0000
    31 C15      5.3551  -1.2798  -0.5337   C.3       1 1      0.0000
    32 H15C     5.6556  -1.0949   0.5052   H         1 1      0.0000
    33 H15A     5.6777  -2.2967  -0.7763   H         1 1      0.0000
    34 H15B     5.9014  -0.6065  -1.2063   H         1 1      0.0000
@<TRIPOS>BOND
     1     1     2    1
     2     1    15    1
     3     1    16    1
     4     1    18    1
     5     2     3    1
     6     2     4    1
     7     2    14    1
     8     4     5    1
     9     4     8    2
    10     5     6    1
    11     5     7    1
    12     5    31    1
    13     8     9    1
    14     8    10    1
    15    10    11    1
    16    10    12    1
    17    10    13    1
    18    15    17    1
    19    18    19   ar
    20    18    20   ar
    21    19    21   ar
    22    19    22    1
    23    20    23   ar
    24    20    24    1
    25    21    25   ar
    26    21    26    1
    27    23    25   ar
    28    23    27    1
    29    25    28    1
    30    28    29   un
    31    28    30   un
    32    31    32    1
    33    31    33    1
    34    31    34    1
@<TRIPOS>SUBSTRUCTURE
     1 1           1 GROUP             0 ****  ****    0  
@<TRIPOS>MOLECULE
Molecule Name_00037
    34    34     1     0     0
SMALL
NO_CHARGES
****
Generated from the CSD

@<TRIPOS>ATOM
     1 C11      1.0248  -0.0084   0.5588   C.3       1 1      0.0000
     2 C12      1.7748   0.3155  -0.7726   C.3       1 1      0.0000
     3 H12A     1.4474   1.2949  -1.1365   H         1 1      0.0000
     4 C13      3.2668   0.2515  -0.5822   C.2       1 1      0.0000
     5 C14      3.9332  -1.0880  -0.7044   C.3       1 1      0.0000
     6 H14A     4.7843  -0.9646  -1.3918   H         1 1      0.0000
     7 H14B     3.2050  -1.7188  -1.2366   H         1 1      0.0000
     8 N        3.9825   1.3107  -0.3150   N.pl3     1 1      0.0000
     9 HN       4.9883   1.1651  -0.1814   H         1 1      0.0000
    10 C        3.5289   2.7231  -0.1499   C.3       1 1      0.0000
    11 HA       4.3045   3.3763  -0.5566   H         1 1      0.0000
    12 HB       2.5971   2.8862  -0.6919   H         1 1      0.0000
    13 HC       3.3904   2.9384   0.9144   H         1 1      0.0000
    14 H12B     1.4859  -0.4351  -1.5123   H         1 1      0.0000
    15 O1       1.5741  -1.3287   0.9461   O.3       1 1      0.0000
    16 H11      1.2849   0.7336   1.3230   H         1 1      0.0000
    17 OH1      1.0964  -1.6974   1.7358   H         1 1      0.0000
    18 C10     -0.4741  -0.0277   0.3421   C.ar      1 1      0.0000
    19 C5      -1.1548   1.1668   0.0529   C.ar      1 1      0.0000
    20 C9      -1.1848  -1.2322   0.4475   C.ar      1 1      0.0000
    21 C6      -2.5368   1.1615  -0.1230   C.ar      1 1      0.0000
    22 H5      -0.6040   2.0959  -0.0539   H         1 1      0.0000
    23 C8      -2.5712  -1.2464   0.2838   C.ar      1 1      0.0000
    24 H8      -0.6633  -2.1635   0.6501   H         1 1      0.0000
    25 C7      -3.2230  -0.0473   0.0029   C.ar      1 1      0.0000
    26 H6      -3.0822   2.0681  -0.3519   H         1 1      0.0000
    27 H7      -3.1406  -2.1638   0.3615   H         1 1      0.0000
    28 NO      -4.6867  -0.0568  -0.1719   N.pl3     1 1      0.0000
    29 ON2     -5.2965  -1.1823  -0.0511   O.2       1 1      0.0000
    30 ON1     -5.2664   1.0600  -0.4362   O.2       1 1      0.0000
    31 C15      4.3907  -1.7528   0.6039   C.3       1 1      0.0000
    32 H15C     3.9254  -2.7355   0.7502   H         1 1      0.0000
    33 H15A     5.4708  -1.9216   0.5600   H         1 1      0.0000
    34 H15B     4.2058  -1.1176   1.4794   H         1 1      0.0000
@<TRIPOS>BOND
     1     1     2    1
     2     1    15    1
     3     1    16    1
     4     1    18    1
     5     2     3    1
     6     2     4    1
     7     2    14    1
     8     4     5    1
     9     4     8    2
    10     5     6    1
    11     5     7    1
    12     5    31    1
    13     8     9    1
    14     8    10    1
    15    10    11    1
    16    10    12    1
    17    10    13    1
    18    15    17    1
    19    18    19   ar
    20    18    20   ar
    21    19    21   ar
    22    19    22    1
    23    20    23   ar
    24    20    24    1
    25    21    25   ar
    26    21    26    1
    27    23    25   ar
    28    23    27    1
    29    25    28    1
    30    28    29   un
    31    28    30   un
    32    31    32    1
    33    31    33    1
    34    31    34    1
@<TRIPOS>SUBSTRUCTURE
     1 1           1 GROUP             0 ****  ****    0  
@<TRIPOS>MOLECULE
Molecule Name_00038
    34    34     1     0     0
SMALL
NO_CHARGES
****
Generated from the CSD

@<TRIPOS>ATOM
     1 C11      1.3363   0.3501   1.6254   C.3       1 1      0.0000
     2 C12      2.4521  -0.4361   0.8656   C.3       1 1      0.0000
     3 H12A     2.2250  -1.5063   0.9075   H         1 1      0.0000
     4 C13      2.5939   0.0581  -0.5493   C.2       1 1      0.0000
     5 C14      2.2145  -0.8769  -1.6607   C.3       1 1      0.0000
     6 H14A     2.7539  -1.8210  -1.4878   H         1 1      0.0000
     7 H14B     2.6603  -0.4365  -2.5655   H         1 1      0.0000
     8 N        3.0333   1.2555  -0.8298   N.pl3     1 1      0.0000
     9 HN       3.1153   1.4949  -1.8231   H         1 1      0.0000
    10 C        3.4632   2.3328   0.1095   C.3       1 1      0.0000
    11 HA       2.7845   3.1799  -0.0151   H         1 1      0.0000
    12 HB       3.4143   1.9778   1.1391   H         1 1      0.0000
    13 HC       4.4840   2.6429  -0.1358   H         1 1      0.0000
    14 H12B     3.3967  -0.2689   1.3889   H         1 1      0.0000
    15 O1       1.3988  -0.2095   2.9957   O.3       1 1      0.0000
    16 H11      1.5866   1.4172   1.6550   H         1 1      0.0000
    17 OH1      0.6593   0.1410   3.5596   H         1 1      0.0000
    18 C10     -0.0105   0.1505   0.9619   C.ar      1 1      0.0000
    19 C5      -0.5080   1.1254   0.0809   C.ar      1 1      0.0000
    20 C9      -0.7686  -0.9963   1.2396   C.ar      1 1      0.0000
    21 C6      -1.7570   0.9611  -0.5140   C.ar      1 1      0.0000
    22 H5       0.0876   2.0016  -0.1550   H         1 1      0.0000
    23 C8      -2.0262  -1.1651   0.6571   C.ar      1 1      0.0000
    24 H8      -0.3822  -1.7647   1.9033   H         1 1      0.0000
    25 C7      -2.4989  -0.1810  -0.2088   C.ar      1 1      0.0000
    26 H6      -2.1586   1.6958  -1.2001   H         1 1      0.0000
    27 H7      -2.6294  -2.0414   0.8574   H         1 1      0.0000
    28 NO      -3.8256  -0.3547  -0.8273   N.pl3     1 1      0.0000
    29 ON2     -4.4899  -1.4148  -0.5308   O.2       1 1      0.0000
    30 ON1     -4.2390   0.5629  -1.6275   O.2       1 1      0.0000
    31 C15      0.7132  -1.1434  -1.8558   C.3       1 1      0.0000
    32 H15C     0.1501  -0.2173  -2.0258   H         1 1      0.0000
    33 H15A     0.5733  -1.7625  -2.7469   H         1 1      0.0000
    34 H15B     0.2769  -1.6972  -1.0149   H         1 1      0.0000
@<TRIPOS>BOND
     1     1     2    1
     2     1    15    1
     3     1    16    1
     4     1    18    1
     5     2     3    1
     6     2     4    1
     7     2    14    1
     8     4     5    1
     9     4     8    2
    10     5     6    1
    11     5     7    1
    12     5    31    1
    13     8     9    1
    14     8    10    1
    15    10    11    1
    16    10    12    1
    17    10    13    1
    18    15    17    1
    19    18    19   ar
    20    18    20   ar
    21    19    21   ar
    22    19    22    1
    23    20    23   ar
    24    20    24    1
    25    21    25   ar
    26    21    26    1
    27    23    25   ar
    28    23    27    1
    29    25    28    1
    30    28    29   un
    31    28    30   un
    32    31    32    1
    33    31    33    1
    34    31    34    1
@<TRIPOS>SUBSTRUCTURE
     1 1           1 GROUP             0 ****  ****    0  
@<TRIPOS>MOLECULE
Molecule Name_00039
    34    34     1     0     0
SMALL
NO_CHARGES
****
Generated from the CSD

@<TRIPOS>ATOM
     1 C11      0.9533  -0.5497   0.5240   C.3       1 1      0.0000
     2 C12      1.7648   0.0689  -0.6588   C.3       1 1      0.0000
     3 H12A     1.3024   1.0176  -0.9501   H         1 1      0.0000
     4 C13      3.2151   0.2349  -0.2911   C.2       1 1      0.0000
     5 C14      3.9381  -0.9558   0.2684   C.3       1 1      0.0000
     6 H14A     3.7779  -1.7902  -0.4318   H         1 1      0.0000
     7 H14B     3.3847  -1.2191   1.1826   H         1 1      0.0000
     8 N        3.8480   1.3674  -0.4402   N.pl3     1 1      0.0000
     9 HN       4.8286   1.3898  -0.1424   H         1 1      0.0000
    10 C        3.3268   2.6621  -0.9695   C.3       1 1      0.0000
    11 HA       4.1298   3.1445  -1.5318   H         1 1      0.0000
    12 HB       2.4776   2.4855  -1.6299   H         1 1      0.0000
    13 HC       3.0293   3.3032  -0.1336   H         1 1      0.0000
    14 H12B     1.6971  -0.6162  -1.5074   H         1 1      0.0000
    15 O1       1.3513  -1.9765   0.5001   O.3       1 1      0.0000
    16 H11      1.2717  -0.0977   1.4709   H         1 1      0.0000
    17 OH1      0.8188  -2.5076   1.1498   H         1 1      0.0000
    18 C10     -0.5337  -0.3432   0.3236   C.ar      1 1      0.0000
    19 C5      -1.0779   0.9495   0.4052   C.ar      1 1      0.0000
    20 C9      -1.3694  -1.4417   0.0748   C.ar      1 1      0.0000
    21 C6      -2.4482   1.1448   0.2469   C.ar      1 1      0.0000
    22 H5      -0.4301   1.8041   0.5727   H         1 1      0.0000
    23 C8      -2.7454  -1.2580  -0.0743   C.ar      1 1      0.0000
    24 H8      -0.9538  -2.4418  -0.0106   H         1 1      0.0000
    25 C7      -3.2606   0.0335   0.0164   C.ar      1 1      0.0000
    26 H6      -2.8896   2.1318   0.3002   H         1 1      0.0000
    27 H7      -3.4097  -2.0908  -0.2660   H         1 1      0.0000
    28 NO      -4.7126   0.2333  -0.1413   N.pl3     1 1      0.0000
    29 ON2     -5.4914  -0.7208   0.2278   O.2       1 1      0.0000
    30 ON1     -5.1139   1.3484  -0.6399   O.2       1 1      0.0000
    31 C15      5.4371  -0.7785   0.5596   C.3       1 1      0.0000
    32 H15C     5.6196  -0.0112   1.3222   H         1 1      0.0000
    33 H15A     5.8369  -1.7161   0.9572   H         1 1      0.0000
    34 H15B     6.0120  -0.5493  -0.3466   H         1 1      0.0000
@<TRIPOS>BOND
     1     1     2    1
     2     1    15    1
     3     1    16    1
     4     1    18    1
     5     2     3    1
     6     2     4    1
     7     2    14    1
     8     4     5    1
     9     4     8    2
    10     5     6    1
    11     5     7    1
    12     5    31    1
    13     8     9    1
    14     8    10    1
    15    10    11    1
    16    10    12    1
    17    10    13    1
    18    15    17    1
    19    18    19   ar
    20    18    20   ar
    21    19    21   ar
    22    19    22    1
    23    20    23   ar
    24    20    24    1
    25    21    25   ar
    26    21    26    1
    27    23    25   ar
    28    23    27    1
    29    25    28    1
    30    28    29   un
    31    28    30   un
    32    31    32    1
    33    31    33    1
    34    31    34    1
@<TRIPOS>SUBSTRUCTURE
     1 1           1 GROUP             0 ****  ****    0  
@<TRIPOS>MOLECULE
Molecule Name_00040
    34    34     1     0     0
SMALL
NO_CHARGES
****
Generated from the CSD

@<TRIPOS>ATOM
     1 C11      1.2610   0.5643   1.6104   C.3       1 1      0.0000
     2 C12      2.3455  -0.3973   1.0279   C.3       1 1      0.0000
     3 H12A     2.0581  -1.4313   1.2450   H         1 1      0.0000
     4 C13      2.5420  -0.1614  -0.4458   C.2       1 1      0.0000
     5 C14      1.6123  -0.8559  -1.3980   C.3       1 1      0.0000
     6 H14A     1.1519  -1.6919  -0.8491   H         1 1      0.0000
     7 H14B     2.2701  -1.3157  -2.1511   H         1 1      0.0000
     8 N        3.4848   0.6145  -0.9090   N.pl3     1 1      0.0000
     9 HN       3.5539   0.6972  -1.9284   H         1 1      0.0000
    10 C        4.5083   1.3909  -0.1491   C.3       1 1      0.0000
    11 HA       4.6822   2.3300  -0.6798   H         1 1      0.0000
    12 HB       4.1490   1.6050   0.8577   H         1 1      0.0000
    13 HC       5.4400   0.8180  -0.1045   H         1 1      0.0000
    14 H12B     3.2877  -0.1920   1.5419   H         1 1      0.0000
    15 O1       1.2959   0.2763   3.0632   O.3       1 1      0.0000
    16 H11      1.5553   1.6062   1.4376   H         1 1      0.0000
    17 OH1      0.5699   0.7581   3.5412   H         1 1      0.0000
    18 C10     -0.0909   0.2952   0.9827   C.ar      1 1      0.0000
    19 C5      -0.5931  -1.0162   0.9380   C.ar      1 1      0.0000
    20 C9      -0.8328   1.3496   0.4307   C.ar      1 1      0.0000
    21 C6      -1.8245  -1.2756   0.3401   C.ar      1 1      0.0000
    22 H5      -0.0326  -1.8301   1.3867   H         1 1      0.0000
    23 C8      -2.0627   1.0987  -0.1805   C.ar      1 1      0.0000
    24 H8      -0.4612   2.3694   0.4797   H         1 1      0.0000
    25 C7      -2.5359  -0.2115  -0.2163   C.ar      1 1      0.0000
    26 H6      -2.2343  -2.2766   0.2985   H         1 1      0.0000
    27 H7      -2.6522   1.8964  -0.6140   H         1 1      0.0000
    28 NO      -3.8344  -0.4819  -0.8596   N.pl3     1 1      0.0000
    29 ON2     -4.4708   0.5144  -1.3649   O.2       1 1      0.0000
    30 ON1     -4.2541  -1.6971  -0.8759   O.2       1 1      0.0000
    31 C15      0.5309   0.0116  -2.0623   C.3       1 1      0.0000
    32 H15C     0.6579   1.0762  -1.8298   H         1 1      0.0000
    33 H15A     0.6146  -0.0835  -3.1490   H         1 1      0.0000
    34 H15B    -0.4831  -0.3113  -1.7944   H         1 1      0.0000
@<TRIPOS>BOND
     1     1     2    1
     2     1    15    1
     3     1    16    1
     4     1    18    1
     5     2     3    1
     6     2     4    1
     7     2    14    1
     8     4     5    1
     9     4     8    2
    10     5     6    1
    11     5     7    1
    12     5    31    1
    13     8     9    1
    14     8    10    1
    15    10    11    1
    16    10    12    1
    17    10    13    1
    18    15    17    1
    19    18    19   ar
    20    18    20   ar
    21    19    21   ar
    22    19    22    1
    23    20    23   ar
    24    20    24    1
    25    21    25   ar
    26    21    26    1
    27    23    25   ar
    28    23    27    1
    29    25    28    1
    30    28    29   un
    31    28    30   un
    32    31    32    1
    33    31    33    1
    34    31    34    1
@<TRIPOS>SUBSTRUCTURE
     1 1           1 GROUP             0 ****  ****    0  
@<TRIPOS>MOLECULE
Molecule Name_00041
    34    34     1     0     0
SMALL
NO_CHARGES
****
Generated from the CSD

@<TRIPOS>ATOM
     1 C11      0.9546  -0.2091   0.6684   C.3       1 1      0.0000
     2 C12      1.7589  -0.1591  -0.6698   C.3       1 1      0.0000
     3 H12A     1.3433   0.6293  -1.3058   H         1 1      0.0000
     4 C13      3.2286   0.0383  -0.4103   C.2       1 1      0.0000
     5 C14      4.0590  -1.1771  -0.1161   C.3       1 1      0.0000
     6 H14A     3.8980  -1.8868  -0.9423   H         1 1      0.0000
     7 H14B     3.5894  -1.6333   0.7687   H         1 1      0.0000
     8 N        3.7889   1.2178  -0.4306   N.pl3     1 1      0.0000
     9 HN       4.7916   1.2550  -0.2212   H         1 1      0.0000
    10 C        3.1572   2.5438  -0.6962   C.3       1 1      0.0000
    11 HA       3.8774   3.1574  -1.2425   H         1 1      0.0000
    12 HB       2.2570   2.4192  -1.2985   H         1 1      0.0000
    13 HC       2.9122   3.0268   0.2550   H         1 1      0.0000
    14 H12B     1.6212  -1.1151  -1.1807   H         1 1      0.0000
    15 O1       1.3718  -1.4980   1.2680   O.3       1 1      0.0000
    16 H11      1.2659   0.6149   1.3213   H         1 1      0.0000
    17 OH1      0.8458  -1.6987   2.0870   H         1 1      0.0000
    18 C10     -0.5348  -0.1296   0.4053   C.ar      1 1      0.0000
    19 C5      -1.0964   1.0621  -0.0831   C.ar      1 1      0.0000
    20 C9      -1.3554  -1.2368   0.6653   C.ar      1 1      0.0000
    21 C6      -2.4691   1.1515  -0.3040   C.ar      1 1      0.0000
    22 H5      -0.4603   1.9121  -0.3088   H         1 1      0.0000
    23 C8      -2.7336  -1.1539   0.4577   C.ar      1 1      0.0000
    24 H8      -0.9263  -2.1685   1.0231   H         1 1      0.0000
    25 C7      -3.2662   0.0409  -0.0222   C.ar      1 1      0.0000
    26 H6      -2.9237   2.0569  -0.6849   H         1 1      0.0000
    27 H7      -3.3865  -1.9951   0.6522   H         1 1      0.0000
    28 NO      -4.7206   0.1336  -0.2441   N.pl3     1 1      0.0000
    29 ON2     -5.3700   1.0290   0.4113   O.2       1 1      0.0000
    30 ON1     -5.2535  -0.6871  -1.0781   O.2       1 1      0.0000
    31 C15      5.5620  -0.9475   0.1104   C.3       1 1      0.0000
    32 H15C     5.7537  -0.3130   0.9846   H         1 1      0.0000
    33 H15A     6.0440  -1.9092   0.3101   H         1 1      0.0000
    34 H15B     6.0555  -0.5248  -0.7739   H         1 1      0.0000
@<TRIPOS>BOND
     1     1     2    1
     2     1    15    1
     3     1    16    1
     4     1    18    1
     5     2     3    1
     6     2     4    1
     7     2    14    1
     8     4     5    1
     9     4     8    2
    10     5     6    1
    11     5     7    1
    12     5    31    1
    13     8     9    1
    14     8    10    1
    15    10    11    1
    16    10    12    1
    17    10    13    1
    18    15    17    1
    19    18    19   ar
    20    18    20   ar
    21    19    21   ar
    22    19    22    1
    23    20    23   ar
    24    20    24    1
    25    21    25   ar
    26    21    26    1
    27    23    25   ar
    28    23    27    1
    29    25    28    1
    30    28    29   un
    31    28    30   un
    32    31    32    1
    33    31    33    1
    34    31    34    1
@<TRIPOS>SUBSTRUCTURE
     1 1           1 GROUP             0 ****  ****    0  
@<TRIPOS>MOLECULE
Molecule Name_00042
    34    34     1     0     0
SMALL
NO_CHARGES
****
Generated from the CSD

@<TRIPOS>ATOM
     1 C11      0.9357   0.0743  -0.6786   C.3       1 1      0.0000
     2 C12      1.7472  -0.0648   0.6489   C.3       1 1      0.0000
     3 H12A     1.3492  -0.9081   1.2228   H         1 1      0.0000
     4 C13      3.2190  -0.2137   0.3699   C.2       1 1      0.0000
     5 C14      3.7311  -1.5787   0.0121   C.3       1 1      0.0000
     6 H14A     3.1512  -1.9243  -0.8577   H         1 1      0.0000
     7 H14B     3.4286  -2.2233   0.8513   H         1 1      0.0000
     8 N        4.0470   0.7942   0.4331   N.pl3     1 1      0.0000
     9 HN       5.0345   0.5914   0.2471   H         1 1      0.0000
    10 C        3.7549   2.2191   0.7682   C.3       1 1      0.0000
    11 HA       4.4087   2.8495   0.1610   H         1 1      0.0000
    12 HB       2.7143   2.4540   0.5435   H         1 1      0.0000
    13 HC       3.9615   2.3927   1.8291   H         1 1      0.0000
    14 H12B     1.5942   0.8457   1.2334   H         1 1      0.0000
    15 O1       1.3796   1.3828  -1.2130   O.3       1 1      0.0000
    16 H11      1.2230  -0.7214  -1.3761   H         1 1      0.0000
    17 OH1      0.8532   1.6386  -2.0163   H         1 1      0.0000
    18 C10     -0.5535   0.0160  -0.4085   C.ar      1 1      0.0000
    19 C5      -1.1402  -1.1862   0.0211   C.ar      1 1      0.0000
    20 C9      -1.3492   1.1542  -0.6038   C.ar      1 1      0.0000
    21 C6      -2.5131  -1.2549   0.2476   C.ar      1 1      0.0000
    22 H5      -0.5230  -2.0615   0.1971   H         1 1      0.0000
    23 C8      -2.7275   1.0929  -0.3902   C.ar      1 1      0.0000
    24 H8      -0.9003   2.0932  -0.9157   H         1 1      0.0000
    25 C7      -3.2853  -0.1127   0.0304   C.ar      1 1      0.0000
    26 H6      -2.9867  -2.1682   0.5840   H         1 1      0.0000
    27 H7      -3.3615   1.9582  -0.5355   H         1 1      0.0000
    28 NO      -4.7400  -0.1828   0.2584   N.pl3     1 1      0.0000
    29 ON2     -5.4148  -1.0271  -0.4380   O.2       1 1      0.0000
    30 ON1     -5.2479   0.6052   1.1383   O.2       1 1      0.0000
    31 C15      5.2384  -1.6994  -0.2643   C.3       1 1      0.0000
    32 H15C     5.8396  -1.4449   0.6174   H         1 1      0.0000
    33 H15A     5.4736  -2.7383  -0.5140   H         1 1      0.0000
    34 H15B     5.5539  -1.0898  -1.1205   H         1 1      0.0000
@<TRIPOS>BOND
     1     1     2    1
     2     1    15    1
     3     1    16    1
     4     1    18    1
     5     2     3    1
     6     2     4    1
     7     2    14    1
     8     4     5    1
     9     4     8    2
    10     5     6    1
    11     5     7    1
    12     5    31    1
    13     8     9    1
    14     8    10    1
    15    10    11    1
    16    10    12    1
    17    10    13    1
    18    15    17    1
    19    18    19   ar
    20    18    20   ar
    21    19    21   ar
    22    19    22    1
    23    20    23   ar
    24    20    24    1
    25    21    25   ar
    26    21    26    1
    27    23    25   ar
    28    23    27    1
    29    25    28    1
    30    28    29   un
    31    28    30   un
    32    31    32    1
    33    31    33    1
    34    31    34    1
@<TRIPOS>SUBSTRUCTURE
     1 1           1 GROUP             0 ****  ****    0  
@<TRIPOS>MOLECULE
Molecule Name_00043
    34    34     1     0     0
SMALL
NO_CHARGES
****
Generated from the CSD

@<TRIPOS>ATOM
     1 C11      1.2664  -0.7403  -1.4790   C.3       1 1      0.0000
     2 C12      2.2787   0.3276  -0.9545   C.3       1 1      0.0000
     3 H12A     1.9636   1.3172  -1.3011   H         1 1      0.0000
     4 C13      2.4024   0.2651   0.5445   C.2       1 1      0.0000
     5 C14      2.6959  -1.0677   1.1696   C.3       1 1      0.0000
     6 H14A     1.9499  -1.7785   0.7819   H         1 1      0.0000
     7 H14B     2.4616  -0.9373   2.2371   H         1 1      0.0000
     8 N        2.2603   1.3199   1.3013   N.pl3     1 1      0.0000
     9 HN       2.3414   1.1752   2.3128   H         1 1      0.0000
    10 C        1.9669   2.7253   0.8934   C.3       1 1      0.0000
    11 HA       2.5072   3.3927   1.5690   H         1 1      0.0000
    12 HB       2.3000   2.8988  -0.1302   H         1 1      0.0000
    13 HC       0.8915   2.9114   0.9780   H         1 1      0.0000
    14 H12B     3.2551   0.1093  -1.3937   H         1 1      0.0000
    15 O1       1.3344  -0.5799  -2.9501   O.3       1 1      0.0000
    16 H11      1.6095  -1.7451  -1.2050   H         1 1      0.0000
    17 OH1      0.6511  -1.1415  -3.4034   H         1 1      0.0000
    18 C10     -0.1179  -0.4925  -0.9166   C.ar      1 1      0.0000
    19 C5      -0.6981   0.7827  -1.0221   C.ar      1 1      0.0000
    20 C9      -0.8129  -1.5285  -0.2757   C.ar      1 1      0.0000
    21 C6      -1.9607   1.0253  -0.4853   C.ar      1 1      0.0000
    22 H5      -0.1731   1.5793  -1.5395   H         1 1      0.0000
    23 C8      -2.0739  -1.2928   0.2752   C.ar      1 1      0.0000
    24 H8      -0.3802  -2.5228  -0.2084   H         1 1      0.0000
    25 C7      -2.6248  -0.0179   0.1617   C.ar      1 1      0.0000
    26 H6      -2.4302   1.9979  -0.5590   H         1 1      0.0000
    27 H7      -2.6283  -2.0767   0.7751   H         1 1      0.0000
    28 NO      -3.9564   0.2362   0.7407   N.pl3     1 1      0.0000
    29 ON2     -4.5481  -0.7404   1.3317   O.2       1 1      0.0000
    30 ON1     -4.4476   1.4182   0.6192   O.2       1 1      0.0000
    31 C15      4.1170  -1.6217   0.9778   C.3       1 1      0.0000
    32 H15C     4.8757  -0.9740   1.4345   H         1 1      0.0000
    33 H15A     4.1924  -2.5922   1.4773   H         1 1      0.0000
    34 H15B     4.3575  -1.7913  -0.0793   H         1 1      0.0000
@<TRIPOS>BOND
     1     1     2    1
     2     1    15    1
     3     1    16    1
     4     1    18    1
     5     2     3    1
     6     2     4    1
     7     2    14    1
     8     4     5    1
     9     4     8    2
    10     5     6    1
    11     5     7    1
    12     5    31    1
    13     8     9    1
    14     8    10    1
    15    10    11    1
    16    10    12    1
    17    10    13    1
    18    15    17    1
    19    18    19   ar
    20    18    20   ar
    21    19    21   ar
    22    19    22    1
    23    20    23   ar
    24    20    24    1
    25    21    25   ar
    26    21    26    1
    27    23    25   ar
    28    23    27    1
    29    25    28    1
    30    28    29   un
    31    28    30   un
    32    31    32    1
    33    31    33    1
    34    31    34    1
@<TRIPOS>SUBSTRUCTURE
     1 1           1 GROUP             0 ****  ****    0  
@<TRIPOS>MOLECULE
Molecule Name_00044
    34    34     1     0     0
SMALL
NO_CHARGES
****
Generated from the CSD

@<TRIPOS>ATOM
     1 C11      1.4198  -0.6218  -1.5204   C.3       1 1      0.0000
     2 C12      2.3911   0.4858  -1.0010   C.3       1 1      0.0000
     3 H12A     2.0140   1.4651  -1.3132   H         1 1      0.0000
     4 C13      2.5657   0.3954   0.4916   C.2       1 1      0.0000
     5 C14      3.0559  -0.9029   1.0636   C.3       1 1      0.0000
     6 H14A     3.5367  -0.6714   2.0266   H         1 1      0.0000
     7 H14B     3.8668  -1.2205   0.3905   H         1 1      0.0000
     8 N        2.3033   1.3973   1.2871   N.pl3     1 1      0.0000
     9 HN       2.4327   1.2345   2.2908   H         1 1      0.0000
    10 C        1.8096   2.7611   0.9345   C.3       1 1      0.0000
    11 HA       2.2473   3.4713   1.6401   H         1 1      0.0000
    12 HB       2.1146   3.0227  -0.0789   H         1 1      0.0000
    13 HC       0.7186   2.7860   1.0197   H         1 1      0.0000
    14 H12B     3.3632   0.3297  -1.4750   H         1 1      0.0000
    15 O1       1.4656  -0.4518  -2.9914   O.3       1 1      0.0000
    16 H11      1.8082  -1.6123  -1.2551   H         1 1      0.0000
    17 OH1      0.8020  -1.0399  -3.4405   H         1 1      0.0000
    18 C10      0.0321  -0.4358  -0.9427   C.ar      1 1      0.0000
    19 C5      -0.5762   0.8302  -0.9770   C.ar      1 1      0.0000
    20 C9      -0.6379  -1.5204  -0.3582   C.ar      1 1      0.0000
    21 C6      -1.8421   1.0151  -0.4253   C.ar      1 1      0.0000
    22 H5      -0.0704   1.6653  -1.4510   H         1 1      0.0000
    23 C8      -1.9020  -1.3431   0.2072   C.ar      1 1      0.0000
    24 H8      -0.1833  -2.5071  -0.3463   H         1 1      0.0000
    25 C7      -2.4811  -0.0764   0.1649   C.ar      1 1      0.0000
    26 H6      -2.3331   1.9796  -0.4447   H         1 1      0.0000
    27 H7      -2.4375  -2.1653   0.6645   H         1 1      0.0000
    28 NO      -3.8161   0.1161   0.7595   N.pl3     1 1      0.0000
    29 ON2     -4.3845  -0.9042   1.2972   O.2       1 1      0.0000
    30 ON1     -4.3336   1.2918   0.7038   O.2       1 1      0.0000
    31 C15      2.0119  -2.0177   1.2381   C.3       1 1      0.0000
    32 H15C     1.9326  -2.6500   0.3451   H         1 1      0.0000
    33 H15A     2.3221  -2.6722   2.0582   H         1 1      0.0000
    34 H15B     1.0236  -1.6231   1.5058   H         1 1      0.0000
@<TRIPOS>BOND
     1     1     2    1
     2     1    15    1
     3     1    16    1
     4     1    18    1
     5     2     3    1
     6     2     4    1
     7     2    14    1
     8     4     5    1
     9     4     8    2
    10     5     6    1
    11     5     7    1
    12     5    31    1
    13     8     9    1
    14     8    10    1
    15    10    11    1
    16    10    12    1
    17    10    13    1
    18    15    17    1
    19    18    19   ar
    20    18    20   ar
    21    19    21   ar
    22    19    22    1
    23    20    23   ar
    24    20    24    1
    25    21    25   ar
    26    21    26    1
    27    23    25   ar
    28    23    27    1
    29    25    28    1
    30    28    29   un
    31    28    30   un
    32    31    32    1
    33    31    33    1
    34    31    34    1
@<TRIPOS>SUBSTRUCTURE
     1 1           1 GROUP             0 ****  ****    0  
@<TRIPOS>MOLECULE
Molecule Name_00045
    34    34     1     0     0
SMALL
NO_CHARGES
****
Generated from the CSD

@<TRIPOS>ATOM
     1 C11      1.0628   0.3697   0.4641   C.3       1 1      0.0000
     2 C12      1.8220  -0.3903  -0.6701   C.3       1 1      0.0000
     3 H12A     1.3970  -0.1032  -1.6374   H         1 1      0.0000
     4 C13      3.3025  -0.1262  -0.6008   C.2       1 1      0.0000
     5 C14      4.2024  -1.2679  -0.2267   C.3       1 1      0.0000
     6 H14A     5.2263  -0.9797  -0.5112   H         1 1      0.0000
     7 H14B     3.9196  -2.0857  -0.9068   H         1 1      0.0000
     8 N        3.8143   1.0492  -0.8497   N.pl3     1 1      0.0000
     9 HN       4.8313   1.1377  -0.7567   H         1 1      0.0000
    10 C        3.1107   2.3085  -1.2329   C.3       1 1      0.0000
    11 HA       3.7479   2.8508  -1.9355   H         1 1      0.0000
    12 HB       2.1583   2.0784  -1.7110   H         1 1      0.0000
    13 HC       2.9478   2.9201  -0.3398   H         1 1      0.0000
    14 H12B     1.6526  -1.4606  -0.5292   H         1 1      0.0000
    15 O1       1.5845  -0.2563   1.7013   O.3       1 1      0.0000
    16 H11      1.3363   1.4314   0.4488   H         1 1      0.0000
    17 OH1      1.0978   0.0741   2.5023   H         1 1      0.0000
    18 C10     -0.4356   0.2166   0.3058   C.ar      1 1      0.0000
    19 C5      -0.9534  -0.5317  -0.7646   C.ar      1 1      0.0000
    20 C9      -1.3060   0.8353   1.2150   C.ar      1 1      0.0000
    21 C6      -2.3310  -0.6565  -0.9316   C.ar      1 1      0.0000
    22 H5      -0.2819  -1.0322  -1.4551   H         1 1      0.0000
    23 C8      -2.6881   0.7255   1.0502   C.ar      1 1      0.0000
    24 H8      -0.9137   1.3982   2.0573   H         1 1      0.0000
    25 C7      -3.1760  -0.0179  -0.0226   C.ar      1 1      0.0000
    26 H6      -2.7531  -1.2323  -1.7452   H         1 1      0.0000
    27 H7      -3.3789   1.1950   1.7387   H         1 1      0.0000
    28 NO      -4.6344  -0.1379  -0.2007   N.pl3     1 1      0.0000
    29 ON2     -5.3921   0.4592   0.6493   O.2       1 1      0.0000
    30 ON1     -5.0621  -0.8334  -1.1939   O.2       1 1      0.0000
    31 C15      4.1610  -1.7271   1.2397   C.3       1 1      0.0000
    32 H15C     3.1706  -2.1035   1.5247   H         1 1      0.0000
    33 H15A     4.8614  -2.5568   1.3741   H         1 1      0.0000
    34 H15B     4.4733  -0.9350   1.9320   H         1 1      0.0000
@<TRIPOS>BOND
     1     1     2    1
     2     1    15    1
     3     1    16    1
     4     1    18    1
     5     2     3    1
     6     2     4    1
     7     2    14    1
     8     4     5    1
     9     4     8    2
    10     5     6    1
    11     5     7    1
    12     5    31    1
    13     8     9    1
    14     8    10    1
    15    10    11    1
    16    10    12    1
    17    10    13    1
    18    15    17    1
    19    18    19   ar
    20    18    20   ar
    21    19    21   ar
    22    19    22    1
    23    20    23   ar
    24    20    24    1
    25    21    25   ar
    26    21    26    1
    27    23    25   ar
    28    23    27    1
    29    25    28    1
    30    28    29   un
    31    28    30   un
    32    31    32    1
    33    31    33    1
    34    31    34    1
@<TRIPOS>SUBSTRUCTURE
     1 1           1 GROUP             0 ****  ****    0  
@<TRIPOS>MOLECULE
Molecule Name_00046
    34    34     1     0     0
SMALL
NO_CHARGES
****
Generated from the CSD

@<TRIPOS>ATOM
     1 C11      0.9294  -0.1956  -0.6853   C.3       1 1      0.0000
     2 C12      1.7466   0.1794   0.5921   C.3       1 1      0.0000
     3 H12A     1.3674  -0.3999   1.4402   H         1 1      0.0000
     4 C13      3.2206  -0.0351   0.3733   C.2       1 1      0.0000
     5 C14      3.6670  -1.3747  -0.1360   C.3       1 1      0.0000
     6 H14A     3.1339  -1.5553  -1.0823   H         1 1      0.0000
     7 H14B     3.2590  -2.1012   0.5831   H         1 1      0.0000
     8 N        4.1047   0.8955   0.6139   N.pl3     1 1      0.0000
     9 HN       5.0870   0.6497   0.4546   H         1 1      0.0000
    10 C        3.8825   2.2818   1.1204   C.3       1 1      0.0000
    11 HA       4.7042   2.9073   0.7636   H         1 1      0.0000
    12 HB       2.9380   2.6747   0.7432   H         1 1      0.0000
    13 HC       3.8783   2.2727   2.2150   H         1 1      0.0000
    14 H12B     1.5764   1.2383   0.8013   H         1 1      0.0000
    15 O1       1.3605   0.8192  -1.6749   O.3       1 1      0.0000
    16 H11      1.2210  -1.1931  -1.0346   H         1 1      0.0000
    17 OH1      0.8293   0.7510  -2.5121   H         1 1      0.0000
    18 C10     -0.5583  -0.1578  -0.4036   C.ar      1 1      0.0000
    19 C5      -1.2480  -1.3494  -0.1239   C.ar      1 1      0.0000
    20 C9      -1.2504   1.0615  -0.4395   C.ar      1 1      0.0000
    21 C6      -2.6210  -1.3263   0.1116   C.ar      1 1      0.0000
    22 H5      -0.7104  -2.2908  -0.0708   H         1 1      0.0000
    23 C8      -2.6282   1.0940  -0.2158   C.ar      1 1      0.0000
    24 H8      -0.7210   1.9899  -0.6343   H         1 1      0.0000
    25 C7      -3.2895  -0.1024   0.0543   C.ar      1 1      0.0000
    26 H6      -3.1727  -2.2305   0.3345   H         1 1      0.0000
    27 H7      -3.1833   2.0229  -0.2393   H         1 1      0.0000
    28 NO      -4.7440  -0.0738   0.2922   N.pl3     1 1      0.0000
    29 ON2     -5.1726  -0.4932   1.4295   O.2       1 1      0.0000
    30 ON1     -5.4976   0.3672  -0.6517   O.2       1 1      0.0000
    31 C15      5.1798  -1.5717  -0.3250   C.3       1 1      0.0000
    32 H15C     5.7271  -1.4843   0.6218   H         1 1      0.0000
    33 H15A     5.3641  -2.5826  -0.7007   H         1 1      0.0000
    34 H15B     5.5997  -0.8786  -1.0649   H         1 1      0.0000
@<TRIPOS>BOND
     1     1     2    1
     2     1    15    1
     3     1    16    1
     4     1    18    1
     5     2     3    1
     6     2     4    1
     7     2    14    1
     8     4     5    1
     9     4     8    2
    10     5     6    1
    11     5     7    1
    12     5    31    1
    13     8     9    1
    14     8    10    1
    15    10    11    1
    16    10    12    1
    17    10    13    1
    18    15    17    1
    19    18    19   ar
    20    18    20   ar
    21    19    21   ar
    22    19    22    1
    23    20    23   ar
    24    20    24    1
    25    21    25   ar
    26    21    26    1
    27    23    25   ar
    28    23    27    1
    29    25    28    1
    30    28    29   un
    31    28    30   un
    32    31    32    1
    33    31    33    1
    34    31    34    1
@<TRIPOS>SUBSTRUCTURE
     1 1           1 GROUP             0 ****  ****    0  
@<TRIPOS>MOLECULE
Molecule Name_00047
    34    34     1     0     0
SMALL
NO_CHARGES
****
Generated from the CSD

@<TRIPOS>ATOM
     1 C11      0.9603  -0.0240   0.6449   C.3       1 1      0.0000
     2 C12      1.7547  -0.2412  -0.6825   C.3       1 1      0.0000
     3 H12A     1.3632   0.4379  -1.4469   H         1 1      0.0000
     4 C13      3.2328  -0.0571  -0.4644   C.2       1 1      0.0000
     5 C14      4.1149  -1.2665  -0.5771   C.3       1 1      0.0000
     6 H14A     3.9377  -1.7050  -1.5713   H         1 1      0.0000
     7 H14B     3.7031  -1.9856   0.1472   H         1 1      0.0000
     8 N        3.7574   1.1049  -0.1817   N.pl3     1 1      0.0000
     9 HN       4.7708   1.1280  -0.0297   H         1 1      0.0000
    10 C        3.0722   2.4213  -0.0220   C.3       1 1      0.0000
    11 HA       3.7355   3.1966  -0.4128   H         1 1      0.0000
    12 HB       2.1362   2.4300  -0.5809   H         1 1      0.0000
    13 HC       2.8806   2.6049   1.0399   H         1 1      0.0000
    14 H12B     1.5772  -1.2664  -1.0164   H         1 1      0.0000
    15 O1       1.3890  -1.1641   1.4883   O.3       1 1      0.0000
    16 H11      1.2717   0.9159   1.1159   H         1 1      0.0000
    17 OH1      0.8700  -1.1978   2.3352   H         1 1      0.0000
    18 C10     -0.5314  -0.0050   0.3834   C.ar      1 1      0.0000
    19 C5      -1.2064   1.2220   0.2706   C.ar      1 1      0.0000
    20 C9      -1.2416  -1.2092   0.2717   C.ar      1 1      0.0000
    21 C6      -2.5826   1.2481   0.0550   C.ar      1 1      0.0000
    22 H5      -0.6553   2.1551   0.3316   H         1 1      0.0000
    23 C8      -2.6225  -1.1939   0.0666   C.ar      1 1      0.0000
    24 H8      -0.7238  -2.1621   0.3368   H         1 1      0.0000
    25 C7      -3.2690   0.0362  -0.0363   C.ar      1 1      0.0000
    26 H6      -3.1234   2.1809  -0.0406   H         1 1      0.0000
    27 H7      -3.1914  -2.1105  -0.0218   H         1 1      0.0000
    28 NO      -4.7268   0.0582  -0.2539   N.pl3     1 1      0.0000
    29 ON2     -5.1640   0.6272  -1.3207   O.2       1 1      0.0000
    30 ON1     -5.4744  -0.4911   0.6363   O.2       1 1      0.0000
    31 C15      5.6189  -1.0472  -0.3465   C.3       1 1      0.0000
    32 H15C     5.8315  -0.6933   0.6700   H         1 1      0.0000
    33 H15A     6.1406  -2.0021  -0.4607   H         1 1      0.0000
    34 H15B     6.0557  -0.3590  -1.0810   H         1 1      0.0000
@<TRIPOS>BOND
     1     1     2    1
     2     1    15    1
     3     1    16    1
     4     1    18    1
     5     2     3    1
     6     2     4    1
     7     2    14    1
     8     4     5    1
     9     4     8    2
    10     5     6    1
    11     5     7    1
    12     5    31    1
    13     8     9    1
    14     8    10    1
    15    10    11    1
    16    10    12    1
    17    10    13    1
    18    15    17    1
    19    18    19   ar
    20    18    20   ar
    21    19    21   ar
    22    19    22    1
    23    20    23   ar
    24    20    24    1
    25    21    25   ar
    26    21    26    1
    27    23    25   ar
    28    23    27    1
    29    25    28    1
    30    28    29   un
    31    28    30   un
    32    31    32    1
    33    31    33    1
    34    31    34    1
@<TRIPOS>SUBSTRUCTURE
     1 1           1 GROUP             0 ****  ****    0  
@<TRIPOS>MOLECULE
Molecule Name_00048
    34    34     1     0     0
SMALL
NO_CHARGES
****
Generated from the CSD

@<TRIPOS>ATOM
     1 C11      1.0028   0.2228   0.8045   C.3       1 1      0.0000
     2 C12      1.8374  -0.2047  -0.4449   C.3       1 1      0.0000
     3 H12A     1.4124   0.2688  -1.3360   H         1 1      0.0000
     4 C13      3.2933   0.1327  -0.2638   C.2       1 1      0.0000
     5 C14      4.1561  -0.8523   0.4701   C.3       1 1      0.0000
     6 H14A     3.6644  -1.0588   1.4333   H         1 1      0.0000
     7 H14B     5.0749  -0.2974   0.7137   H         1 1      0.0000
     8 N        3.8148   1.2409  -0.7170   N.pl3     1 1      0.0000
     9 HN       4.8106   1.3927  -0.5272   H         1 1      0.0000
    10 C        3.1461   2.3468  -1.4638   C.3       1 1      0.0000
    11 HA       3.8583   2.7408  -2.1927   H         1 1      0.0000
    12 HB       2.2648   1.9718  -1.9848   H         1 1      0.0000
    13 HC       2.8631   3.1392  -0.7636   H         1 1      0.0000
    14 H12B     1.7426  -1.2874  -0.5580   H         1 1      0.0000
    15 O1       1.4500  -0.7240   1.8525   O.3       1 1      0.0000
    16 H11      1.2689   1.2450   1.0984   H         1 1      0.0000
    17 OH1      0.9115  -0.6210   2.6814   H         1 1      0.0000
    18 C10     -0.4816   0.1344   0.5169   C.ar      1 1      0.0000
    19 C5      -1.0221  -1.0482  -0.0153   C.ar      1 1      0.0000
    20 C9      -1.3130   1.2365   0.7640   C.ar      1 1      0.0000
    21 C6      -2.3822  -1.1289  -0.3061   C.ar      1 1      0.0000
    22 H5      -0.3854  -1.9109  -0.1840   H         1 1      0.0000
    23 C8      -2.6753   1.1696   0.4658   C.ar      1 1      0.0000
    24 H8      -0.9068   2.1473   1.1948   H         1 1      0.0000
    25 C7      -3.1854  -0.0129  -0.0662   C.ar      1 1      0.0000
    26 H6      -2.8223  -2.0310  -0.7114   H         1 1      0.0000
    27 H7      -3.3359   2.0077   0.6472   H         1 1      0.0000
    28 NO      -4.6233  -0.0893  -0.3820   N.pl3     1 1      0.0000
    29 ON2     -4.9564  -0.3288  -1.6005   O.2       1 1      0.0000
    30 ON1     -5.4587   0.0895   0.5789   O.2       1 1      0.0000
    31 C15      4.4791  -2.1654  -0.2611   C.3       1 1      0.0000
    32 H15C     5.0485  -1.9932  -1.1829   H         1 1      0.0000
    33 H15A     5.1076  -2.7876   0.3831   H         1 1      0.0000
    34 H15B     3.5774  -2.7503  -0.4823   H         1 1      0.0000
@<TRIPOS>BOND
     1     1     2    1
     2     1    15    1
     3     1    16    1
     4     1    18    1
     5     2     3    1
     6     2     4    1
     7     2    14    1
     8     4     5    1
     9     4     8    2
    10     5     6    1
    11     5     7    1
    12     5    31    1
    13     8     9    1
    14     8    10    1
    15    10    11    1
    16    10    12    1
    17    10    13    1
    18    15    17    1
    19    18    19   ar
    20    18    20   ar
    21    19    21   ar
    22    19    22    1
    23    20    23   ar
    24    20    24    1
    25    21    25   ar
    26    21    26    1
    27    23    25   ar
    28    23    27    1
    29    25    28    1
    30    28    29   un
    31    28    30   un
    32    31    32    1
    33    31    33    1
    34    31    34    1
@<TRIPOS>SUBSTRUCTURE
     1 1           1 GROUP             0 ****  ****    0  
@<TRIPOS>MOLECULE
Molecule Name_00049
    34    34     1     0     0
SMALL
NO_CHARGES
****
Generated from the CSD

@<TRIPOS>ATOM
     1 C11      1.0785  -0.2320  -0.5372   C.3       1 1      0.0000
     2 C12      1.7947   0.4886   0.6494   C.3       1 1      0.0000
     3 H12A     1.3756   0.1237   1.5927   H         1 1      0.0000
     4 C13      3.2859   0.2944   0.5792   C.2       1 1      0.0000
     5 C14      3.8549  -0.9786   1.1351   C.3       1 1      0.0000
     6 H14A     3.4607  -1.0903   2.1571   H         1 1      0.0000
     7 H14B     4.9320  -0.7818   1.2475   H         1 1      0.0000
     8 N        4.0828   1.1892   0.0599   N.pl3     1 1      0.0000
     9 HN       5.0856   0.9774   0.0756   H         1 1      0.0000
    10 C        3.7333   2.5102  -0.5407   C.3       1 1      0.0000
    11 HA       4.3924   2.6771  -1.3959   H         1 1      0.0000
    12 HB       2.6963   2.5094  -0.8773   H         1 1      0.0000
    13 HC       3.8897   3.2997   0.2013   H         1 1      0.0000
    14 H12B     1.5791   1.5571   0.5731   H         1 1      0.0000
    15 O1       1.5330   0.5312  -1.7228   O.3       1 1      0.0000
    16 H11      1.4317  -1.2673  -0.6121   H         1 1      0.0000
    17 OH1      1.0609   0.2310  -2.5443   H         1 1      0.0000
    18 C10     -0.4247  -0.2076  -0.3541   C.ar      1 1      0.0000
    19 C5      -1.0781   1.0082  -0.0919   C.ar      1 1      0.0000
    20 C9      -1.1620  -1.3984  -0.4279   C.ar      1 1      0.0000
    21 C6      -2.4574   1.0355   0.1026   C.ar      1 1      0.0000
    22 H5      -0.5134   1.9345  -0.0591   H         1 1      0.0000
    23 C8      -2.5430  -1.3835  -0.2236   C.ar      1 1      0.0000
    24 H8      -0.6673  -2.3396  -0.6509   H         1 1      0.0000
    25 C7      -3.1661  -0.1653   0.0400   C.ar      1 1      0.0000
    26 H6      -2.9834   1.9606   0.3004   H         1 1      0.0000
    27 H7      -3.1323  -2.2900  -0.2749   H         1 1      0.0000
    28 NO      -4.6242  -0.1436   0.2555   N.pl3     1 1      0.0000
    29 ON2     -5.0558   0.2954   1.3843   O.2       1 1      0.0000
    30 ON1     -5.3776  -0.5664  -0.6967   O.2       1 1      0.0000
    31 C15      3.6073  -2.2585   0.3206   C.3       1 1      0.0000
    32 H15C     3.9272  -2.1497  -0.7233   H         1 1      0.0000
    33 H15A     4.2008  -3.0732   0.7462   H         1 1      0.0000
    34 H15B     2.5585  -2.5788   0.3587   H         1 1      0.0000
@<TRIPOS>BOND
     1     1     2    1
     2     1    15    1
     3     1    16    1
     4     1    18    1
     5     2     3    1
     6     2     4    1
     7     2    14    1
     8     4     5    1
     9     4     8    2
    10     5     6    1
    11     5     7    1
    12     5    31    1
    13     8     9    1
    14     8    10    1
    15    10    11    1
    16    10    12    1
    17    10    13    1
    18    15    17    1
    19    18    19   ar
    20    18    20   ar
    21    19    21   ar
    22    19    22    1
    23    20    23   ar
    24    20    24    1
    25    21    25   ar
    26    21    26    1
    27    23    25   ar
    28    23    27    1
    29    25    28    1
    30    28    29   un
    31    28    30   un
    32    31    32    1
    33    31    33    1
    34    31    34    1
@<TRIPOS>SUBSTRUCTURE
     1 1           1 GROUP             0 ****  ****    0  
@<TRIPOS>MOLECULE
Molecule Name_00050
    34    34     1     0     0
SMALL
NO_CHARGES
****
Generated from the CSD

@<TRIPOS>ATOM
     1 C11      0.9880   0.2441  -0.8193   C.3       1 1      0.0000
     2 C12      1.8345   0.0233   0.4749   C.3       1 1      0.0000
     3 H12A     1.4786  -0.8786   0.9835   H         1 1      0.0000
     4 C13      3.3036  -0.0493   0.1542   C.2       1 1      0.0000
     5 C14      3.8528  -1.3605  -0.3279   C.3       1 1      0.0000
     6 H14A     4.8350  -1.1534  -0.7802   H         1 1      0.0000
     7 H14B     3.1942  -1.6547  -1.1592   H         1 1      0.0000
     8 N        4.0984   0.9786   0.2854   N.pl3     1 1      0.0000
     9 HN       5.0875   0.8273   0.0629   H         1 1      0.0000
    10 C        3.7663   2.3591   0.7455   C.3       1 1      0.0000
    11 HA       4.3841   3.0610   0.1804   H         1 1      0.0000
    12 HB       2.7134   2.5749   0.5628   H         1 1      0.0000
    13 HC       3.9916   2.4506   1.8128   H         1 1      0.0000
    14 H12B     1.6646   0.8757   1.1371   H         1 1      0.0000
    15 O1       1.3749   1.6076  -1.2503   O.3       1 1      0.0000
    16 H11      1.2856  -0.4798  -1.5872   H         1 1      0.0000
    17 OH1      0.8216   1.9108  -2.0183   H         1 1      0.0000
    18 C10     -0.4917   0.1104  -0.5248   C.ar      1 1      0.0000
    19 C5      -1.0640   0.8411   0.5300   C.ar      1 1      0.0000
    20 C9      -1.2864  -0.7544  -1.2913   C.ar      1 1      0.0000
    21 C6      -2.4191   0.7047   0.8233   C.ar      1 1      0.0000
    22 H5      -0.4566   1.5298   1.1086   H         1 1      0.0000
    23 C8      -2.6430  -0.9064  -0.9985   C.ar      1 1      0.0000
    24 H8      -0.8561  -1.3070  -2.1218   H         1 1      0.0000
    25 C7      -3.1850  -0.1745   0.0560   C.ar      1 1      0.0000
    26 H6      -2.8835   1.2612   1.6273   H         1 1      0.0000
    27 H7      -3.2755  -1.5687  -1.5757   H         1 1      0.0000
    28 NO      -4.6170  -0.3305   0.3688   N.pl3     1 1      0.0000
    29 ON2     -4.9307  -0.7498   1.5431   O.2       1 1      0.0000
    30 ON1     -5.4670  -0.0397  -0.5510   O.2       1 1      0.0000
    31 C15      3.9670  -2.4853   0.7136   C.3       1 1      0.0000
    32 H15C     2.9881  -2.7730   1.1169   H         1 1      0.0000
    33 H15A     4.3814  -3.3765   0.2328   H         1 1      0.0000
    34 H15B     4.6473  -2.2243   1.5341   H         1 1      0.0000
@<TRIPOS>BOND
     1     1     2    1
     2     1    15    1
     3     1    16    1
     4     1    18    1
     5     2     3    1
     6     2     4    1
     7     2    14    1
     8     4     5    1
     9     4     8    2
    10     5     6    1
    11     5     7    1
    12     5    31    1
    13     8     9    1
    14     8    10    1
    15    10    11    1
    16    10    12    1
    17    10    13    1
    18    15    17    1
    19    18    19   ar
    20    18    20   ar
    21    19    21   ar
    22    19    22    1
    23    20    23   ar
    24    20    24    1
    25    21    25   ar
    26    21    26    1
    27    23    25   ar
    28    23    27    1
    29    25    28    1
    30    28    29   un
    31    28    30   un
    32    31    32    1
    33    31    33    1
    34    31    34    1
@<TRIPOS>SUBSTRUCTURE
     1 1           1 GROUP             0 ****  ****    0  
@<TRIPOS>MOLECULE
Molecule Name_00051
    34    34     1     0     0
SMALL
NO_CHARGES
****
Generated from the CSD

@<TRIPOS>ATOM
     1 C11      1.2426  -1.5077   0.5186   C.3       1 1      0.0000
     2 C12      2.2675  -0.8635  -0.4687   C.3       1 1      0.0000
     3 H12A     1.9158  -1.0130  -1.4947   H         1 1      0.0000
     4 C13      2.4837   0.5919  -0.1502   C.2       1 1      0.0000
     5 C14      2.8879   0.9516   1.2500   C.3       1 1      0.0000
     6 H14A     2.1578   0.4833   1.9281   H         1 1      0.0000
     7 H14B     2.7158   2.0361   1.3245   H         1 1      0.0000
     8 N        2.3282   1.5325  -1.0428   N.pl3     1 1      0.0000
     9 HN       2.4774   2.4962  -0.7271   H         1 1      0.0000
    10 C        1.9330   1.3993  -2.4760   C.3       1 1      0.0000
    11 HA       2.4731   2.1583  -3.0469   H         1 1      0.0000
    12 HB       2.1960   0.4095  -2.8498   H         1 1      0.0000
    13 HC       0.8555   1.5664  -2.5729   H         1 1      0.0000
    14 H12B     3.2188  -1.3893  -0.3561   H         1 1      0.0000
    15 O1       1.3130  -2.9502   0.1886   O.3       1 1      0.0000
    16 H11      1.5735  -1.3531   1.5525   H         1 1      0.0000
    17 OH1      0.6231  -3.4651   0.6853   H         1 1      0.0000
    18 C10     -0.1388  -0.9188   0.3215   C.ar      1 1      0.0000
    19 C5      -0.4103   0.3894   0.7561   C.ar      1 1      0.0000
    20 C9      -1.1507  -1.6833  -0.2772   C.ar      1 1      0.0000
    21 C6      -1.6852   0.9294   0.6011   C.ar      1 1      0.0000
    22 H5       0.3775   0.9919   1.1969   H         1 1      0.0000
    23 C8      -2.4345  -1.1554  -0.4271   C.ar      1 1      0.0000
    24 H8      -0.9435  -2.6880  -0.6349   H         1 1      0.0000
    25 C7      -2.6791   0.1425   0.0170   C.ar      1 1      0.0000
    26 H6      -1.9167   1.9366   0.9231   H         1 1      0.0000
    27 H7      -3.2313  -1.7271  -0.8853   H         1 1      0.0000
    28 NO      -4.0325   0.7053  -0.1397   N.pl3     1 1      0.0000
    29 ON2     -4.9309  -0.0388  -0.6804   O.2       1 1      0.0000
    30 ON1     -4.2339   1.9066   0.2718   O.2       1 1      0.0000
    31 C15      4.3214   0.5877   1.6692   C.3       1 1      0.0000
    32 H15C     5.0720   1.1117   1.0644   H         1 1      0.0000
    33 H15A     4.4807   0.9005   2.7054   H         1 1      0.0000
    34 H15B     4.5023  -0.4941   1.6347   H         1 1      0.0000
@<TRIPOS>BOND
     1     1     2    1
     2     1    15    1
     3     1    16    1
     4     1    18    1
     5     2     3    1
     6     2     4    1
     7     2    14    1
     8     4     5    1
     9     4     8    2
    10     5     6    1
    11     5     7    1
    12     5    31    1
    13     8     9    1
    14     8    10    1
    15    10    11    1
    16    10    12    1
    17    10    13    1
    18    15    17    1
    19    18    19   ar
    20    18    20   ar
    21    19    21   ar
    22    19    22    1
    23    20    23   ar
    24    20    24    1
    25    21    25   ar
    26    21    26    1
    27    23    25   ar
    28    23    27    1
    29    25    28    1
    30    28    29   un
    31    28    30   un
    32    31    32    1
    33    31    33    1
    34    31    34    1
@<TRIPOS>SUBSTRUCTURE
     1 1           1 GROUP             0 ****  ****    0  
@<TRIPOS>MOLECULE
Molecule Name_00052
    34    34     1     0     0
SMALL
NO_CHARGES
****
Generated from the CSD

@<TRIPOS>ATOM
     1 C11      1.0683  -0.0194  -0.6340   C.3       1 1      0.0000
     2 C12      1.8169  -0.4094   0.6804   C.3       1 1      0.0000
     3 H12A     1.5580  -1.4398   0.9452   H         1 1      0.0000
     4 C13      3.3029  -0.2185   0.5333   C.2       1 1      0.0000
     5 C14      4.0876  -1.3082  -0.1376   C.3       1 1      0.0000
     6 H14A     3.8344  -2.2505   0.3724   H         1 1      0.0000
     7 H14B     5.1376  -1.0996   0.1185   H         1 1      0.0000
     8 N        3.9162   0.8489   0.9692   N.pl3     1 1      0.0000
     9 HN       4.9329   0.8799   0.8427   H         1 1      0.0000
    10 C        3.3366   2.0386   1.6596   C.3       1 1      0.0000
    11 HA       3.8890   2.9220   1.3307   H         1 1      0.0000
    12 HB       2.2842   2.1513   1.3981   H         1 1      0.0000
    13 HC       3.4469   1.9202   2.7422   H         1 1      0.0000
    14 H12B     1.4591   0.2461   1.4781   H         1 1      0.0000
    15 O1       1.5803   1.3397  -0.9266   O.3       1 1      0.0000
    16 H11      1.3572  -0.7003  -1.4434   H         1 1      0.0000
    17 OH1      1.1871   1.6973  -1.7663   H         1 1      0.0000
    18 C10     -0.4321  -0.0593  -0.4318   C.ar      1 1      0.0000
    19 C5      -1.2455   0.9155  -1.0336   C.ar      1 1      0.0000
    20 C9      -1.0079  -1.0563   0.3691   C.ar      1 1      0.0000
    21 C6      -2.6240   0.9004  -0.8321   C.ar      1 1      0.0000
    22 H5      -0.8053   1.6731  -1.6740   H         1 1      0.0000
    23 C8      -2.3870  -1.0737   0.5862   C.ar      1 1      0.0000
    24 H8      -0.3884  -1.8260   0.8209   H         1 1      0.0000
    25 C7      -3.1707  -0.0926  -0.0177   C.ar      1 1      0.0000
    26 H6      -3.2714   1.6375  -1.2895   H         1 1      0.0000
    27 H7      -2.8532  -1.8328   1.2011   H         1 1      0.0000
    28 NO      -4.6274  -0.1068   0.2074   N.pl3     1 1      0.0000
    29 ON2     -5.1074  -1.0312   0.9613   O.2       1 1      0.0000
    30 ON1     -5.3316   0.8044  -0.3644   O.2       1 1      0.0000
    31 C15      3.9061  -1.4536  -1.6571   C.3       1 1      0.0000
    32 H15C     4.1003  -0.5123  -2.1862   H         1 1      0.0000
    33 H15A     4.6312  -2.1803  -2.0355   H         1 1      0.0000
    34 H15B     2.9112  -1.8330  -1.9222   H         1 1      0.0000
@<TRIPOS>BOND
     1     1     2    1
     2     1    15    1
     3     1    16    1
     4     1    18    1
     5     2     3    1
     6     2     4    1
     7     2    14    1
     8     4     5    1
     9     4     8    2
    10     5     6    1
    11     5     7    1
    12     5    31    1
    13     8     9    1
    14     8    10    1
    15    10    11    1
    16    10    12    1
    17    10    13    1
    18    15    17    1
    19    18    19   ar
    20    18    20   ar
    21    19    21   ar
    22    19    22    1
    23    20    23   ar
    24    20    24    1
    25    21    25   ar
    26    21    26    1
    27    23    25   ar
    28    23    27    1
    29    25    28    1
    30    28    29   un
    31    28    30   un
    32    31    32    1
    33    31    33    1
    34    31    34    1
@<TRIPOS>SUBSTRUCTURE
     1 1           1 GROUP             0 ****  ****    0  
@<TRIPOS>MOLECULE
Molecule Name_00053
    34    34     1     0     0
SMALL
NO_CHARGES
****
Generated from the CSD

@<TRIPOS>ATOM
     1 C11      0.9891   0.3122  -0.7971   C.3       1 1      0.0000
     2 C12      1.8367  -0.3910   0.3108   C.3       1 1      0.0000
     3 H12A     1.6241  -1.4649   0.2937   H         1 1      0.0000
     4 C13      3.3034  -0.1008   0.1353   C.2       1 1      0.0000
     5 C14      4.0687  -0.9273  -0.8569   C.3       1 1      0.0000
     6 H14A     5.0117  -0.3971  -1.0610   H         1 1      0.0000
     7 H14B     3.4824  -0.8681  -1.7865   H         1 1      0.0000
     8 N        3.9166   0.8315   0.8137   N.pl3     1 1      0.0000
     9 HN       4.9210   0.9416   0.6411   H         1 1      0.0000
    10 C        3.3546   1.7579   1.8403   C.3       1 1      0.0000
    11 HA       3.8593   2.7214   1.7378   H         1 1      0.0000
    12 HB       2.2841   1.8912   1.6828   H         1 1      0.0000
    13 HC       3.5424   1.3509   2.8389   H         1 1      0.0000
    14 H12B     1.5174   0.0027   1.2788   H         1 1      0.0000
    15 O1       1.4434   1.7207  -0.7302   O.3       1 1      0.0000
    16 H11      1.2395  -0.1059  -1.7793   H         1 1      0.0000
    17 OH1      0.9972   2.2742  -1.4247   H         1 1      0.0000
    18 C10     -0.4922   0.1512  -0.5259   C.ar      1 1      0.0000
    19 C5      -1.3708   1.2167  -0.7841   C.ar      1 1      0.0000
    20 C9      -0.9847  -1.0526  -0.0012   C.ar      1 1      0.0000
    21 C6      -2.7312   1.0853  -0.5139   C.ar      1 1      0.0000
    22 H5      -0.9960   2.1404  -1.2136   H         1 1      0.0000
    23 C8      -2.3446  -1.1906   0.2834   C.ar      1 1      0.0000
    24 H8      -0.3153  -1.8885   0.1817   H         1 1      0.0000
    25 C7      -3.1939  -0.1171   0.0232   C.ar      1 1      0.0000
    26 H6      -3.4280   1.8902  -0.7095   H         1 1      0.0000
    27 H7      -2.7470  -2.1098   0.6895   H         1 1      0.0000
    28 NO      -4.6307  -0.2578   0.3209   N.pl3     1 1      0.0000
    29 ON2     -5.0328  -1.3746   0.8151   O.2       1 1      0.0000
    30 ON1     -5.3966   0.7434   0.0673   O.2       1 1      0.0000
    31 C15      4.3466  -2.3886  -0.4690   C.3       1 1      0.0000
    32 H15C     3.4208  -2.9643  -0.3458   H         1 1      0.0000
    33 H15A     4.9099  -2.8707  -1.2735   H         1 1      0.0000
    34 H15B     4.9599  -2.4683   0.4374   H         1 1      0.0000
@<TRIPOS>BOND
     1     1     2    1
     2     1    15    1
     3     1    16    1
     4     1    18    1
     5     2     3    1
     6     2     4    1
     7     2    14    1
     8     4     5    1
     9     4     8    2
    10     5     6    1
    11     5     7    1
    12     5    31    1
    13     8     9    1
    14     8    10    1
    15    10    11    1
    16    10    12    1
    17    10    13    1
    18    15    17    1
    19    18    19   ar
    20    18    20   ar
    21    19    21   ar
    22    19    22    1
    23    20    23   ar
    24    20    24    1
    25    21    25   ar
    26    21    26    1
    27    23    25   ar
    28    23    27    1
    29    25    28    1
    30    28    29   un
    31    28    30   un
    32    31    32    1
    33    31    33    1
    34    31    34    1
@<TRIPOS>SUBSTRUCTURE
     1 1           1 GROUP             0 ****  ****    0  
@<TRIPOS>MOLECULE
Molecule Name_00054
    34    34     1     0     0
SMALL
NO_CHARGES
****
Generated from the CSD

@<TRIPOS>ATOM
     1 C11      0.9896   0.0801   0.8355   C.3       1 1      0.0000
     2 C12      1.8212   0.3005  -0.4684   C.3       1 1      0.0000
     3 H12A     1.5381   1.2600  -0.9134   H         1 1      0.0000
     4 C13      3.2981   0.2198  -0.1880   C.2       1 1      0.0000
     5 C14      3.9579  -1.1253  -0.2818   C.3       1 1      0.0000
     6 H14A     3.3774  -1.8153   0.3500   H         1 1      0.0000
     7 H14B     4.9285  -1.0000   0.2217   H         1 1      0.0000
     8 N        4.0063   1.2693   0.1321   N.pl3     1 1      0.0000
     9 HN       5.0006   1.1124   0.3254   H         1 1      0.0000
    10 C        3.5570   2.6847   0.2822   C.3       1 1      0.0000
    11 HA       4.3622   3.3336  -0.0704   H         1 1      0.0000
    12 HB       2.6616   2.8619  -0.3140   H         1 1      0.0000
    13 HC       3.3558   2.8922   1.3380   H         1 1      0.0000
    14 H12B     1.5571  -0.4915  -1.1734   H         1 1      0.0000
    15 O1       1.5078  -1.2064   1.3560   O.3       1 1      0.0000
    16 H11      1.2061   0.8788   1.5549   H         1 1      0.0000
    17 OH1      1.0663  -1.4499   2.2125   H         1 1      0.0000
    18 C10     -0.4933   0.0444   0.5293   C.ar      1 1      0.0000
    19 C5      -1.3260  -0.8618   1.2071   C.ar      1 1      0.0000
    20 C9      -1.0322   0.9011  -0.4415   C.ar      1 1      0.0000
    21 C6      -2.6867  -0.9184   0.9134   C.ar      1 1      0.0000
    22 H5      -0.9160  -1.5084   1.9764   H         1 1      0.0000
    23 C8      -2.3924   0.8447  -0.7510   C.ar      1 1      0.0000
    24 H8      -0.3990   1.6191  -0.9551   H         1 1      0.0000
    25 C7      -3.1957  -0.0666  -0.0682   C.ar      1 1      0.0000
    26 H6      -3.3489  -1.6042   1.4260   H         1 1      0.0000
    27 H7      -2.8303   1.4954  -1.4971   H         1 1      0.0000
    28 NO      -4.6327  -0.1296  -0.3904   N.pl3     1 1      0.0000
    29 ON2     -5.0779   0.6648  -1.2980   O.2       1 1      0.0000
    30 ON1     -5.3558  -0.9736   0.2561   O.2       1 1      0.0000
    31 C15      4.1365  -1.7092  -1.6925   C.3       1 1      0.0000
    32 H15C     4.7858  -1.0832  -2.3172   H         1 1      0.0000
    33 H15A     4.6235  -2.6859  -1.6157   H         1 1      0.0000
    34 H15B     3.1768  -1.8739  -2.1985   H         1 1      0.0000
@<TRIPOS>BOND
     1     1     2    1
     2     1    15    1
     3     1    16    1
     4     1    18    1
     5     2     3    1
     6     2     4    1
     7     2    14    1
     8     4     5    1
     9     4     8    2
    10     5     6    1
    11     5     7    1
    12     5    31    1
    13     8     9    1
    14     8    10    1
    15    10    11    1
    16    10    12    1
    17    10    13    1
    18    15    17    1
    19    18    19   ar
    20    18    20   ar
    21    19    21   ar
    22    19    22    1
    23    20    23   ar
    24    20    24    1
    25    21    25   ar
    26    21    26    1
    27    23    25   ar
    28    23    27    1
    29    25    28    1
    30    28    29   un
    31    28    30   un
    32    31    32    1
    33    31    33    1
    34    31    34    1
@<TRIPOS>SUBSTRUCTURE
     1 1           1 GROUP             0 ****  ****    0  
@<TRIPOS>MOLECULE
Molecule Name_00055
    34    34     1     0     0
SMALL
NO_CHARGES
****
Generated from the CSD

@<TRIPOS>ATOM
     1 C11      1.0987  -0.4665   0.5945   C.3       1 1      0.0000
     2 C12      1.8524  -0.2934  -0.7627   C.3       1 1      0.0000
     3 H12A     1.2874   0.3961  -1.3984   H         1 1      0.0000
     4 C13      3.2670   0.1713  -0.5402   C.2       1 1      0.0000
     5 C14      4.1235  -0.6162   0.4083   C.3       1 1      0.0000
     6 H14A     5.1723  -0.3894   0.1618   H         1 1      0.0000
     7 H14B     3.9676  -1.6679   0.1237   H         1 1      0.0000
     8 N        3.7580   1.2240  -1.1370   N.pl3     1 1      0.0000
     9 HN       4.7248   1.4750  -0.9066   H         1 1      0.0000
    10 C        3.0887   2.1419  -2.1051   C.3       1 1      0.0000
    11 HA       3.8333   2.4601  -2.8386   H         1 1      0.0000
    12 HB       2.2756   1.6250  -2.6152   H         1 1      0.0000
    13 HC       2.7047   3.0166  -1.5706   H         1 1      0.0000
    14 H12B     1.8799  -1.2668  -1.2584   H         1 1      0.0000
    15 O1       1.4817  -1.8314   1.0246   O.3       1 1      0.0000
    16 H11      1.4706   0.2637   1.3230   H         1 1      0.0000
    17 OH1      0.9792  -2.1048   1.8374   H         1 1      0.0000
    18 C10     -0.3948  -0.2988   0.4067   C.ar      1 1      0.0000
    19 C5      -1.0620  -1.0339  -0.5876   C.ar      1 1      0.0000
    20 C9      -1.1085   0.6016   1.2110   C.ar      1 1      0.0000
    21 C6      -2.4312  -0.8668  -0.7834   C.ar      1 1      0.0000
    22 H5      -0.5167  -1.7497  -1.1945   H         1 1      0.0000
    23 C8      -2.4787   0.7844   1.0155   C.ar      1 1      0.0000
    24 H8      -0.6040   1.1583   1.9958   H         1 1      0.0000
    25 C7      -3.1156   0.0472   0.0193   C.ar      1 1      0.0000
    26 H6      -2.9677  -1.4259  -1.5392   H         1 1      0.0000
    27 H7      -3.0498   1.4744   1.6235   H         1 1      0.0000
    28 NO      -4.5625   0.2356  -0.1907   N.pl3     1 1      0.0000
    29 ON2     -5.1708   1.0829   0.5609   O.2       1 1      0.0000
    30 ON1     -5.1304  -0.4594  -1.1114   O.2       1 1      0.0000
    31 C15      3.8659  -0.4040   1.9088   C.3       1 1      0.0000
    32 H15C     3.3894  -1.2772   2.3716   H         1 1      0.0000
    33 H15A     4.8234  -0.2631   2.4191   H         1 1      0.0000
    34 H15B     3.2686   0.4955   2.1047   H         1 1      0.0000
@<TRIPOS>BOND
     1     1     2    1
     2     1    15    1
     3     1    16    1
     4     1    18    1
     5     2     3    1
     6     2     4    1
     7     2    14    1
     8     4     5    1
     9     4     8    2
    10     5     6    1
    11     5     7    1
    12     5    31    1
    13     8     9    1
    14     8    10    1
    15    10    11    1
    16    10    12    1
    17    10    13    1
    18    15    17    1
    19    18    19   ar
    20    18    20   ar
    21    19    21   ar
    22    19    22    1
    23    20    23   ar
    24    20    24    1
    25    21    25   ar
    26    21    26    1
    27    23    25   ar
    28    23    27    1
    29    25    28    1
    30    28    29   un
    31    28    30   un
    32    31    32    1
    33    31    33    1
    34    31    34    1
@<TRIPOS>SUBSTRUCTURE
     1 1           1 GROUP             0 ****  ****    0  
@<TRIPOS>MOLECULE
Molecule Name_00056
    34    34     1     0     0
SMALL
NO_CHARGES
****
Generated from the CSD

@<TRIPOS>ATOM
     1 C11      0.9716  -0.5846   0.5417   C.3       1 1      0.0000
     2 C12      1.7789  -0.1627  -0.7274   C.3       1 1      0.0000
     3 H12A     1.2742   0.6830  -1.2055   H         1 1      0.0000
     4 C13      3.2085   0.1544  -0.3781   C.2       1 1      0.0000
     5 C14      4.1686  -0.9914  -0.2418   C.3       1 1      0.0000
     6 H14A     4.1334  -1.5573  -1.1856   H         1 1      0.0000
     7 H14B     3.7201  -1.6474   0.5197   H         1 1      0.0000
     8 N        3.6266   1.3774  -0.1907   N.pl3     1 1      0.0000
     9 HN       4.6126   1.4930   0.0643   H         1 1      0.0000
    10 C        2.8500   2.6493  -0.2732   C.3       1 1      0.0000
    11 HA       3.5061   3.4192  -0.6862   H         1 1      0.0000
    12 HB       1.9855   2.5223  -0.9252   H         1 1      0.0000
    13 HC       2.5270   2.9438   0.7304   H         1 1      0.0000
    14 H12B     1.7696  -1.0026  -1.4262   H         1 1      0.0000
    15 O1       1.3295  -2.0119   0.7135   O.3       1 1      0.0000
    16 H11      1.3191  -0.0140   1.4111   H         1 1      0.0000
    17 OH1      0.8612  -2.4067   1.4963   H         1 1      0.0000
    18 C10     -0.5124  -0.3639   0.3344   C.ar      1 1      0.0000
    19 C5      -0.9675   0.8312  -0.2474   C.ar      1 1      0.0000
    20 C9      -1.4325  -1.3421   0.7386   C.ar      1 1      0.0000
    21 C6      -2.3323   1.0526  -0.4186   C.ar      1 1      0.0000
    22 H5      -0.2564   1.5790  -0.5839   H         1 1      0.0000
    23 C8      -2.8027  -1.1253   0.5816   C.ar      1 1      0.0000
    24 H8      -1.0878  -2.2777   1.1701   H         1 1      0.0000
    25 C7      -3.2283   0.0705   0.0067   C.ar      1 1      0.0000
    26 H6      -2.7063   1.9629  -0.8692   H         1 1      0.0000
    27 H7      -3.5312  -1.8655   0.8869   H         1 1      0.0000
    28 NO      -4.6739   0.3042  -0.1624   N.pl3     1 1      0.0000
    29 ON2     -5.4793  -0.6150   0.2370   O.2       1 1      0.0000
    30 ON1     -5.0435   1.4119  -0.7004   O.2       1 1      0.0000
    31 C15      5.6202  -0.6360   0.1181   C.3       1 1      0.0000
    32 H15C     5.6931  -0.1487   1.0983   H         1 1      0.0000
    33 H15A     6.2079  -1.5567   0.1821   H         1 1      0.0000
    34 H15B     6.0966  -0.0101  -0.6470   H         1 1      0.0000
@<TRIPOS>BOND
     1     1     2    1
     2     1    15    1
     3     1    16    1
     4     1    18    1
     5     2     3    1
     6     2     4    1
     7     2    14    1
     8     4     5    1
     9     4     8    2
    10     5     6    1
    11     5     7    1
    12     5    31    1
    13     8     9    1
    14     8    10    1
    15    10    11    1
    16    10    12    1
    17    10    13    1
    18    15    17    1
    19    18    19   ar
    20    18    20   ar
    21    19    21   ar
    22    19    22    1
    23    20    23   ar
    24    20    24    1
    25    21    25   ar
    26    21    26    1
    27    23    25   ar
    28    23    27    1
    29    25    28    1
    30    28    29   un
    31    28    30   un
    32    31    32    1
    33    31    33    1
    34    31    34    1
@<TRIPOS>SUBSTRUCTURE
     1 1           1 GROUP             0 ****  ****    0  
@<TRIPOS>MOLECULE
Molecule Name_00057
    34    34     1     0     0
SMALL
NO_CHARGES
****
Generated from the CSD

@<TRIPOS>ATOM
     1 C11      0.9368   0.6053  -0.4425   C.3       1 1      0.0000
     2 C12      1.7620  -0.1453   0.6511   C.3       1 1      0.0000
     3 H12A     1.2577  -1.0860   0.8945   H         1 1      0.0000
     4 C13      3.1822  -0.3635   0.2019   C.2       1 1      0.0000
     5 C14      3.4629  -1.5346  -0.6943   C.3       1 1      0.0000
     6 H14A     2.8065  -1.4347  -1.5726   H         1 1      0.0000
     7 H14B     3.0930  -2.4104  -0.1398   H         1 1      0.0000
     8 N        4.1587   0.4227   0.5676   N.pl3     1 1      0.0000
     9 HN       5.0955   0.1820   0.2282   H         1 1      0.0000
    10 C        4.1037   1.6285   1.4456   C.3       1 1      0.0000
    11 HA       4.8264   2.3551   1.0667   H         1 1      0.0000
    12 HB       3.1053   2.0658   1.4243   H         1 1      0.0000
    13 HC       4.3713   1.3458   2.4687   H         1 1      0.0000
    14 H12B     1.7729   0.4763   1.5496   H         1 1      0.0000
    15 O1       1.3052   2.0248  -0.2320   O.3       1 1      0.0000
    16 H11      1.2636   0.2873  -1.4396   H         1 1      0.0000
    17 OH1      0.8270   2.6172  -0.8709   H         1 1      0.0000
    18 C10     -0.5454   0.3438  -0.2733   C.ar      1 1      0.0000
    19 C5      -1.0017  -0.9616  -0.0246   C.ar      1 1      0.0000
    20 C9      -1.4630   1.3987  -0.3824   C.ar      1 1      0.0000
    21 C6      -2.3654  -1.2146   0.1073   C.ar      1 1      0.0000
    22 H5      -0.2920  -1.7755   0.0851   H         1 1      0.0000
    23 C8      -2.8324   1.1539  -0.2628   C.ar      1 1      0.0000
    24 H8      -1.1170   2.4142  -0.5538   H         1 1      0.0000
    25 C7      -3.2592  -0.1504  -0.0216   C.ar      1 1      0.0000
    26 H6      -2.7402  -2.2108   0.3044   H         1 1      0.0000
    27 H7      -3.5589   1.9522  -0.3442   H         1 1      0.0000
    28 NO      -4.7038  -0.4143   0.1066   N.pl3     1 1      0.0000
    29 ON2     -5.5073   0.5819  -0.0160   O.2       1 1      0.0000
    30 ON1     -5.0745  -1.6241   0.3349   O.2       1 1      0.0000
    31 C15      4.9226  -1.7327  -1.1338   C.3       1 1      0.0000
    32 H15C     5.5862  -1.9231  -0.2811   H         1 1      0.0000
    33 H15A     4.9844  -2.6128  -1.7809   H         1 1      0.0000
    34 H15B     5.2992  -0.8839  -1.7184   H         1 1      0.0000
@<TRIPOS>BOND
     1     1     2    1
     2     1    15    1
     3     1    16    1
     4     1    18    1
     5     2     3    1
     6     2     4    1
     7     2    14    1
     8     4     5    1
     9     4     8    2
    10     5     6    1
    11     5     7    1
    12     5    31    1
    13     8     9    1
    14     8    10    1
    15    10    11    1
    16    10    12    1
    17    10    13    1
    18    15    17    1
    19    18    19   ar
    20    18    20   ar
    21    19    21   ar
    22    19    22    1
    23    20    23   ar
    24    20    24    1
    25    21    25   ar
    26    21    26    1
    27    23    25   ar
    28    23    27    1
    29    25    28    1
    30    28    29   un
    31    28    30   un
    32    31    32    1
    33    31    33    1
    34    31    34    1
@<TRIPOS>SUBSTRUCTURE
     1 1           1 GROUP             0 ****  ****    0  
@<TRIPOS>MOLECULE
Molecule Name_00058
    34    34     1     0     0
SMALL
NO_CHARGES
****
Generated from the CSD

@<TRIPOS>ATOM
     1 C11      1.2132  -1.2252  -1.2665   C.3       1 1      0.0000
     2 C12      2.2251  -0.0353  -1.2466   C.3       1 1      0.0000
     3 H12A     1.7991   0.8038  -1.8062   H         1 1      0.0000
     4 C13      2.5815   0.3478   0.1650   C.2       1 1      0.0000
     5 C14      2.9225  -0.7535   1.1264   C.3       1 1      0.0000
     6 H14A     3.7319  -1.3433   0.6691   H         1 1      0.0000
     7 H14B     2.0381  -1.4086   1.1314   H         1 1      0.0000
     8 N        2.5981   1.5898   0.5683   N.pl3     1 1      0.0000
     9 HN       2.8326   1.7511   1.5530   H         1 1      0.0000
    10 C        2.2940   2.8257  -0.2114   C.3       1 1      0.0000
    11 HA       2.9653   3.6158   0.1331   H         1 1      0.0000
    12 HB       2.4566   2.6505  -1.2752   H         1 1      0.0000
    13 HC       1.2561   3.1230  -0.0312   H         1 1      0.0000
    14 H12B     3.1341  -0.3585  -1.7595   H         1 1      0.0000
    15 O1       1.1719  -1.6127  -2.6958   O.3       1 1      0.0000
    16 H11      1.6069  -2.0591  -0.6734   H         1 1      0.0000
    17 OH1      0.4767  -2.3038  -2.8595   H         1 1      0.0000
    18 C10     -0.1352  -0.7950  -0.7274   C.ar      1 1      0.0000
    19 C5      -1.1605  -1.7425  -0.5698   C.ar      1 1      0.0000
    20 C9      -0.3668   0.5496  -0.4028   C.ar      1 1      0.0000
    21 C6      -2.4115  -1.3504  -0.0982   C.ar      1 1      0.0000
    22 H5      -0.9763  -2.7879  -0.7965   H         1 1      0.0000
    23 C8      -1.6202   0.9547   0.0602   C.ar      1 1      0.0000
    24 H8       0.4269   1.2848  -0.5019   H         1 1      0.0000
    25 C7      -2.6215  -0.0037   0.2025   C.ar      1 1      0.0000
    26 H6      -3.2149  -2.0631   0.0366   H         1 1      0.0000
    27 H7      -1.8222   1.9869   0.3160   H         1 1      0.0000
    28 NO      -3.9464   0.4184   0.6918   N.pl3     1 1      0.0000
    29 ON2     -4.1155   1.6640   0.9620   O.2       1 1      0.0000
    30 ON1     -4.8534  -0.4837   0.8210   O.2       1 1      0.0000
    31 C15      3.3063  -0.3294   2.5532   C.3       1 1      0.0000
    32 H15C     2.4830   0.1845   3.0647   H         1 1      0.0000
    33 H15A     3.5318  -1.2230   3.1429   H         1 1      0.0000
    34 H15B     4.2072   0.2969   2.5722   H         1 1      0.0000
@<TRIPOS>BOND
     1     1     2    1
     2     1    15    1
     3     1    16    1
     4     1    18    1
     5     2     3    1
     6     2     4    1
     7     2    14    1
     8     4     5    1
     9     4     8    2
    10     5     6    1
    11     5     7    1
    12     5    31    1
    13     8     9    1
    14     8    10    1
    15    10    11    1
    16    10    12    1
    17    10    13    1
    18    15    17    1
    19    18    19   ar
    20    18    20   ar
    21    19    21   ar
    22    19    22    1
    23    20    23   ar
    24    20    24    1
    25    21    25   ar
    26    21    26    1
    27    23    25   ar
    28    23    27    1
    29    25    28    1
    30    28    29   un
    31    28    30   un
    32    31    32    1
    33    31    33    1
    34    31    34    1
@<TRIPOS>SUBSTRUCTURE
     1 1           1 GROUP             0 ****  ****    0  
@<TRIPOS>MOLECULE
Molecule Name_00059
    34    34     1     0     0
SMALL
NO_CHARGES
****
Generated from the CSD

@<TRIPOS>ATOM
     1 C11      1.0235  -0.3763   0.6702   C.3       1 1      0.0000
     2 C12      1.8516   0.1890  -0.5277   C.3       1 1      0.0000
     3 H12A     1.3528   1.0835  -0.9147   H         1 1      0.0000
     4 C13      3.2739   0.4655  -0.1190   C.2       1 1      0.0000
     5 C14      4.0326  -0.6320   0.5688   C.3       1 1      0.0000
     6 H14A     3.4433  -0.9300   1.4498   H         1 1      0.0000
     7 H14B     4.9384  -0.1462   0.9625   H         1 1      0.0000
     8 N        3.8529   1.6149  -0.3402   N.pl3     1 1      0.0000
     9 HN       4.8171   1.7166  -0.0072   H         1 1      0.0000
    10 C        3.2889   2.8297  -0.9991   C.3       1 1      0.0000
    11 HA       4.0896   3.3070  -1.5690   H         1 1      0.0000
    12 HB       2.4797   2.5514  -1.6747   H         1 1      0.0000
    13 HC       2.9221   3.5211  -0.2339   H         1 1      0.0000
    14 H12B     1.8571  -0.5653  -1.3182   H         1 1      0.0000
    15 O1       1.4825  -1.7815   0.7679   O.3       1 1      0.0000
    16 H11      1.2866   0.1585   1.5904   H         1 1      0.0000
    17 OH1      0.9491  -2.2866   1.4373   H         1 1      0.0000
    18 C10     -0.4624  -0.2528   0.4040   C.ar      1 1      0.0000
    19 C5      -1.0639   1.0165   0.3690   C.ar      1 1      0.0000
    20 C9      -1.2407  -1.4033   0.2107   C.ar      1 1      0.0000
    21 C6      -2.4344   1.1373   0.1496   C.ar      1 1      0.0000
    22 H5      -0.4597   1.9096   0.4933   H         1 1      0.0000
    23 C8      -2.6167  -1.2937   0.0011   C.ar      1 1      0.0000
    24 H8      -0.7800  -2.3872   0.2155   H         1 1      0.0000
    25 C7      -3.1895  -0.0236  -0.0238   C.ar      1 1      0.0000
    26 H6      -2.9190   2.1045   0.1129   H         1 1      0.0000
    27 H7      -3.2374  -2.1676  -0.1495   H         1 1      0.0000
    28 NO      -4.6417   0.0980  -0.2457   N.pl3     1 1      0.0000
    29 ON2     -5.3925  -0.8604   0.1678   O.2       1 1      0.0000
    30 ON1     -5.0712   1.1538  -0.8406   O.2       1 1      0.0000
    31 C15      4.3883  -1.8624  -0.2812   C.3       1 1      0.0000
    32 H15C     5.0498  -1.6063  -1.1182   H         1 1      0.0000
    33 H15A     4.9330  -2.5801   0.3396   H         1 1      0.0000
    34 H15B     3.4965  -2.3812  -0.6548   H         1 1      0.0000
@<TRIPOS>BOND
     1     1     2    1
     2     1    15    1
     3     1    16    1
     4     1    18    1
     5     2     3    1
     6     2     4    1
     7     2    14    1
     8     4     5    1
     9     4     8    2
    10     5     6    1
    11     5     7    1
    12     5    31    1
    13     8     9    1
    14     8    10    1
    15    10    11    1
    16    10    12    1
    17    10    13    1
    18    15    17    1
    19    18    19   ar
    20    18    20   ar
    21    19    21   ar
    22    19    22    1
    23    20    23   ar
    24    20    24    1
    25    21    25   ar
    26    21    26    1
    27    23    25   ar
    28    23    27    1
    29    25    28    1
    30    28    29   un
    31    28    30   un
    32    31    32    1
    33    31    33    1
    34    31    34    1
@<TRIPOS>SUBSTRUCTURE
     1 1           1 GROUP             0 ****  ****    0  
@<TRIPOS>MOLECULE
Molecule Name_00060
    34    34     1     0     0
SMALL
NO_CHARGES
****
Generated from the CSD

@<TRIPOS>ATOM
     1 C11      0.9997  -0.0177   0.8048   C.3       1 1      0.0000
     2 C12      1.8561  -0.0484  -0.5013   C.3       1 1      0.0000
     3 H12A     1.4372   0.6649  -1.2186   H         1 1      0.0000
     4 C13      3.3052   0.2314  -0.2045   C.2       1 1      0.0000
     5 C14      4.1702  -0.9203   0.2181   C.3       1 1      0.0000
     6 H14A     3.6683  -1.4073   1.0685   H         1 1      0.0000
     7 H14B     5.0787  -0.4555   0.6304   H         1 1      0.0000
     8 N        3.8189   1.4282  -0.2999   N.pl3     1 1      0.0000
     9 HN       4.8101   1.5246  -0.0572   H         1 1      0.0000
    10 C        3.1466   2.7007  -0.6957   C.3       1 1      0.0000
    11 HA       3.8636   3.2989  -1.2631   H         1 1      0.0000
    12 HB       2.2771   2.4904  -1.3188   H         1 1      0.0000
    13 HC       2.8446   3.2473   0.2034   H         1 1      0.0000
    14 H12B     1.7761  -1.0494  -0.9321   H         1 1      0.0000
    15 O1       1.4446  -1.2294   1.5318   O.3       1 1      0.0000
    16 H11      1.2492   0.8733   1.3931   H         1 1      0.0000
    17 OH1      0.8938  -1.3813   2.3450   H         1 1      0.0000
    18 C10     -0.4795  -0.0282   0.4797   C.ar      1 1      0.0000
    19 C5      -1.0693   1.0899  -0.1335   C.ar      1 1      0.0000
    20 C9      -1.2637  -1.1443   0.8060   C.ar      1 1      0.0000
    21 C6      -2.4341   1.0980  -0.4131   C.ar      1 1      0.0000
    22 H5      -0.4601   1.9446  -0.4098   H         1 1      0.0000
    23 C8      -2.6343  -1.1418   0.5400   C.ar      1 1      0.0000
    24 H8      -0.8117  -2.0211   1.2611   H         1 1      0.0000
    25 C7      -3.1956  -0.0184  -0.0639   C.ar      1 1      0.0000
    26 H6      -2.9096   1.9455  -0.8898   H         1 1      0.0000
    27 H7      -3.2594  -1.9912   0.7838   H         1 1      0.0000
    28 NO      -4.6421  -0.0108  -0.3478   N.pl3     1 1      0.0000
    29 ON2     -5.3546   0.9083   0.2005   O.2       1 1      0.0000
    30 ON1     -5.1055  -0.9241  -1.1251   O.2       1 1      0.0000
    31 C15      4.5190  -1.9546  -0.8644   C.3       1 1      0.0000
    32 H15C     5.0984  -1.5120  -1.6842   H         1 1      0.0000
    33 H15A     5.1465  -2.7350  -0.4236   H         1 1      0.0000
    34 H15B     3.6276  -2.4545  -1.2639   H         1 1      0.0000
@<TRIPOS>BOND
     1     1     2    1
     2     1    15    1
     3     1    16    1
     4     1    18    1
     5     2     3    1
     6     2     4    1
     7     2    14    1
     8     4     5    1
     9     4     8    2
    10     5     6    1
    11     5     7    1
    12     5    31    1
    13     8     9    1
    14     8    10    1
    15    10    11    1
    16    10    12    1
    17    10    13    1
    18    15    17    1
    19    18    19   ar
    20    18    20   ar
    21    19    21   ar
    22    19    22    1
    23    20    23   ar
    24    20    24    1
    25    21    25   ar
    26    21    26    1
    27    23    25   ar
    28    23    27    1
    29    25    28    1
    30    28    29   un
    31    28    30   un
    32    31    32    1
    33    31    33    1
    34    31    34    1
@<TRIPOS>SUBSTRUCTURE
     1 1           1 GROUP             0 ****  ****    0  
@<TRIPOS>MOLECULE
Molecule Name_00061
    34    34     1     0     0
SMALL
NO_CHARGES
****
Generated from the CSD

@<TRIPOS>ATOM
     1 C11      1.0646   0.0600  -0.5781   C.3       1 1      0.0000
     2 C12      1.8296   0.1017   0.7833   C.3       1 1      0.0000
     3 H12A     1.4333  -0.6809   1.4385   H         1 1      0.0000
     4 C13      3.3142  -0.0329   0.5736   C.2       1 1      0.0000
     5 C14      3.8775  -1.4146   0.4095   C.3       1 1      0.0000
     6 H14A     3.5131  -2.0155   1.2570   H         1 1      0.0000
     7 H14B     4.9609  -1.2989   0.5659   H         1 1      0.0000
     8 N        4.1104   1.0015   0.5348   N.pl3     1 1      0.0000
     9 HN       5.1093   0.8094   0.4085   H         1 1      0.0000
    10 C        3.7659   2.4470   0.6760   C.3       1 1      0.0000
    11 HA       4.4012   3.0138  -0.0087   H         1 1      0.0000
    12 HB       2.7192   2.6124   0.4197   H         1 1      0.0000
    13 HC       3.9589   2.7679   1.7046   H         1 1      0.0000
    14 H12B     1.6305   1.0689   1.2511   H         1 1      0.0000
    15 O1       1.4957   1.3085  -1.2489   O.3       1 1      0.0000
    16 H11      1.3970  -0.8039  -1.1659   H         1 1      0.0000
    17 OH1      0.9934   1.4525  -2.0943   H         1 1      0.0000
    18 C10     -0.4317  -0.0089  -0.3535   C.ar      1 1      0.0000
    19 C5      -1.0042  -1.1684   0.1958   C.ar      1 1      0.0000
    20 C9      -1.2472   1.0751  -0.7096   C.ar      1 1      0.0000
    21 C6      -2.3825  -1.2492   0.3823   C.ar      1 1      0.0000
    22 H5      -0.3728  -1.9988   0.4954   H         1 1      0.0000
    23 C8      -2.6307   0.9998  -0.5370   C.ar      1 1      0.0000
    24 H8      -0.8103   1.9832  -1.1155   H         1 1      0.0000
    25 C7      -3.1740  -0.1633   0.0049   C.ar      1 1      0.0000
    26 H6      -2.8457  -2.1298   0.8087   H         1 1      0.0000
    27 H7      -3.2798   1.8234  -0.8054   H         1 1      0.0000
    28 NO      -4.6339  -0.2477   0.1902   N.pl3     1 1      0.0000
    29 ON2     -5.2616  -1.1873  -0.4233   O.2       1 1      0.0000
    30 ON1     -5.1931   0.6236   0.9525   O.2       1 1      0.0000
    31 C15      3.5825  -2.1264  -0.9206   C.3       1 1      0.0000
    32 H15C     3.8719  -1.5171  -1.7859   H         1 1      0.0000
    33 H15A     4.1744  -3.0451  -0.9730   H         1 1      0.0000
    34 H15B     2.5298  -2.4237  -1.0081   H         1 1      0.0000
@<TRIPOS>BOND
     1     1     2    1
     2     1    15    1
     3     1    16    1
     4     1    18    1
     5     2     3    1
     6     2     4    1
     7     2    14    1
     8     4     5    1
     9     4     8    2
    10     5     6    1
    11     5     7    1
    12     5    31    1
    13     8     9    1
    14     8    10    1
    15    10    11    1
    16    10    12    1
    17    10    13    1
    18    15    17    1
    19    18    19   ar
    20    18    20   ar
    21    19    21   ar
    22    19    22    1
    23    20    23   ar
    24    20    24    1
    25    21    25   ar
    26    21    26    1
    27    23    25   ar
    28    23    27    1
    29    25    28    1
    30    28    29   un
    31    28    30   un
    32    31    32    1
    33    31    33    1
    34    31    34    1
@<TRIPOS>SUBSTRUCTURE
     1 1           1 GROUP             0 ****  ****    0  
@<TRIPOS>MOLECULE
Molecule Name_00062
    34    34     1     0     0
SMALL
NO_CHARGES
****
Generated from the CSD

@<TRIPOS>ATOM
     1 C11      0.9820   0.2979  -0.7748   C.3       1 1      0.0000
     2 C12      1.8549  -0.0196   0.4812   C.3       1 1      0.0000
     3 H12A     1.5119  -0.9600   0.9247   H         1 1      0.0000
     4 C13      3.3175  -0.0605   0.1269   C.2       1 1      0.0000
     5 C14      3.8607  -1.3276  -0.4670   C.3       1 1      0.0000
     6 H14A     4.8330  -1.0814  -0.9212   H         1 1      0.0000
     7 H14B     3.1864  -1.5588  -1.3056   H         1 1      0.0000
     8 N        4.1118   0.9575   0.3223   N.pl3     1 1      0.0000
     9 HN       5.0967   0.8284   0.0690   H         1 1      0.0000
    10 C        3.7851   2.2964   0.8954   C.3       1 1      0.0000
    11 HA       4.3895   3.0430   0.3748   H         1 1      0.0000
    12 HB       2.7281   2.5212   0.7509   H         1 1      0.0000
    13 HC       4.0315   2.3052   1.9619   H         1 1      0.0000
    14 H12B     1.6959   0.7777   1.2112   H         1 1      0.0000
    15 O1       1.3563   1.6926  -1.1054   O.3       1 1      0.0000
    16 H11      1.2662  -0.3625  -1.6027   H         1 1      0.0000
    17 OH1      0.7869   2.0524  -1.8362   H         1 1      0.0000
    18 C10     -0.4911   0.1351  -0.4624   C.ar      1 1      0.0000
    19 C5      -1.0162  -1.1438  -0.2123   C.ar      1 1      0.0000
    20 C9      -1.3337   1.2560  -0.4403   C.ar      1 1      0.0000
    21 C6      -2.3748  -1.3049   0.0511   C.ar      1 1      0.0000
    22 H5      -0.3619  -2.0097  -0.2041   H         1 1      0.0000
    23 C8      -2.6985   1.1041  -0.1882   C.ar      1 1      0.0000
    24 H8      -0.9319   2.2507  -0.6120   H         1 1      0.0000
    25 C7      -3.1951  -0.1756   0.0514   C.ar      1 1      0.0000
    26 H6      -2.8012  -2.2793   0.2520   H         1 1      0.0000
    27 H7      -3.3680   1.9544  -0.1671   H         1 1      0.0000
    28 NO      -4.6352  -0.3417   0.3191   N.pl3     1 1      0.0000
    29 ON2     -5.3098  -1.0901  -0.4796   O.2       1 1      0.0000
    30 ON1     -5.1313   0.2726   1.3337   O.2       1 1      0.0000
    31 C15      3.9989  -2.5298   0.4808   C.3       1 1      0.0000
    32 H15C     3.0291  -2.8524   0.8797   H         1 1      0.0000
    33 H15A     4.4061  -3.3789  -0.0763   H         1 1      0.0000
    34 H15B     4.6948  -2.3307   1.3056   H         1 1      0.0000
@<TRIPOS>BOND
     1     1     2    1
     2     1    15    1
     3     1    16    1
     4     1    18    1
     5     2     3    1
     6     2     4    1
     7     2    14    1
     8     4     5    1
     9     4     8    2
    10     5     6    1
    11     5     7    1
    12     5    31    1
    13     8     9    1
    14     8    10    1
    15    10    11    1
    16    10    12    1
    17    10    13    1
    18    15    17    1
    19    18    19   ar
    20    18    20   ar
    21    19    21   ar
    22    19    22    1
    23    20    23   ar
    24    20    24    1
    25    21    25   ar
    26    21    26    1
    27    23    25   ar
    28    23    27    1
    29    25    28    1
    30    28    29   un
    31    28    30   un
    32    31    32    1
    33    31    33    1
    34    31    34    1
@<TRIPOS>SUBSTRUCTURE
     1 1           1 GROUP             0 ****  ****    0  
@<TRIPOS>MOLECULE
Molecule Name_00063
    34    34     1     0     0
SMALL
NO_CHARGES
****
Generated from the CSD

@<TRIPOS>ATOM
     1 C11      1.1729   0.7082   1.6615   C.3       1 1      0.0000
     2 C12      2.2576  -0.3170   1.2001   C.3       1 1      0.0000
     3 H12A     1.9585  -1.3202   1.5208   H         1 1      0.0000
     4 C13      2.4770  -0.2394  -0.2872   C.2       1 1      0.0000
     5 C14      2.0501  -1.4119  -1.1218   C.3       1 1      0.0000
     6 H14A     0.9836  -1.5874  -0.9121   H         1 1      0.0000
     7 H14B     2.5868  -2.2731  -0.6954   H         1 1      0.0000
     8 N        3.0219   0.8004  -0.8592   N.pl3     1 1      0.0000
     9 HN       3.1496   0.7530  -1.8752   H         1 1      0.0000
    10 C        3.5155   2.0588  -0.2262   C.3       1 1      0.0000
    11 HA       2.7536   2.8290  -0.3674   H         1 1      0.0000
    12 HB       3.6818   1.9049   0.8402   H         1 1      0.0000
    13 HC       4.4452   2.3702  -0.7130   H         1 1      0.0000
    14 H12B     3.1940  -0.0649   1.7036   H         1 1      0.0000
    15 O1       1.1503   0.5402   3.1332   O.3       1 1      0.0000
    16 H11      1.4946   1.7271   1.4152   H         1 1      0.0000
    17 OH1      0.4177   1.0723   3.5430   H         1 1      0.0000
    18 C10     -0.1610   0.4121   1.0081   C.ar      1 1      0.0000
    19 C5      -0.6976  -0.8849   1.0694   C.ar      1 1      0.0000
    20 C9      -0.8515   1.4254   0.3274   C.ar      1 1      0.0000
    21 C6      -1.9120  -1.1715   0.4496   C.ar      1 1      0.0000
    22 H5      -0.1776  -1.6647   1.6168   H         1 1      0.0000
    23 C8      -2.0637   1.1459  -0.3064   C.ar      1 1      0.0000
    24 H8      -0.4537   2.4358   0.2932   H         1 1      0.0000
    25 C7      -2.5716  -0.1497  -0.2351   C.ar      1 1      0.0000
    26 H6      -2.3478  -2.1616   0.4879   H         1 1      0.0000
    27 H7      -2.6136   1.9117  -0.8382   H         1 1      0.0000
    28 NO      -3.8516  -0.4500  -0.9017   N.pl3     1 1      0.0000
    29 ON2     -4.7111   0.5009  -1.0029   O.2       1 1      0.0000
    30 ON1     -4.0334  -1.6447  -1.3407   O.2       1 1      0.0000
    31 C15      2.2897  -1.3042  -2.6364   C.3       1 1      0.0000
    32 H15C     3.3562  -1.2172  -2.8787   H         1 1      0.0000
    33 H15A     1.9325  -2.2181  -3.1203   H         1 1      0.0000
    34 H15B     1.7349  -0.4712  -3.0865   H         1 1      0.0000
@<TRIPOS>BOND
     1     1     2    1
     2     1    15    1
     3     1    16    1
     4     1    18    1
     5     2     3    1
     6     2     4    1
     7     2    14    1
     8     4     5    1
     9     4     8    2
    10     5     6    1
    11     5     7    1
    12     5    31    1
    13     8     9    1
    14     8    10    1
    15    10    11    1
    16    10    12    1
    17    10    13    1
    18    15    17    1
    19    18    19   ar
    20    18    20   ar
    21    19    21   ar
    22    19    22    1
    23    20    23   ar
    24    20    24    1
    25    21    25   ar
    26    21    26    1
    27    23    25   ar
    28    23    27    1
    29    25    28    1
    30    28    29   un
    31    28    30   un
    32    31    32    1
    33    31    33    1
    34    31    34    1
@<TRIPOS>SUBSTRUCTURE
     1 1           1 GROUP             0 ****  ****    0  
@<TRIPOS>MOLECULE
Molecule Name_00064
    34    34     1     0     0
SMALL
NO_CHARGES
****
Generated from the CSD

@<TRIPOS>ATOM
     1 C11      1.0733  -0.6119   0.1318   C.3       1 1      0.0000
     2 C12      1.7910   0.7425   0.4328   C.3       1 1      0.0000
     3 H12A     1.4938   1.0894   1.4279   H         1 1      0.0000
     4 C13      3.2845   0.6035   0.3039   C.2       1 1      0.0000
     5 C14      3.9617  -0.4682   1.1078   C.3       1 1      0.0000
     6 H14A     3.5823  -0.3884   2.1383   H         1 1      0.0000
     7 H14B     5.0185  -0.1640   1.1513   H         1 1      0.0000
     8 N        3.9934   1.3786  -0.4720   N.pl3     1 1      0.0000
     9 HN       5.0063   1.2219  -0.4783   H         1 1      0.0000
    10 C        3.5293   2.4956  -1.3465   C.3       1 1      0.0000
    11 HA       4.3846   2.8459  -1.9291   H         1 1      0.0000
    12 HB       2.7489   2.1463  -2.0229   H         1 1      0.0000
    13 HC       3.1520   3.3126  -0.7233   H         1 1      0.0000
    14 H12B     1.4453   1.4761  -0.2995   H         1 1      0.0000
    15 O1       1.6257  -1.0040  -1.1858   O.3       1 1      0.0000
    16 H11      1.3563  -1.3586   0.8831   H         1 1      0.0000
    17 OH1      1.1663  -1.8107  -1.5408   H         1 1      0.0000
    18 C10     -0.4306  -0.4333   0.1173   C.ar      1 1      0.0000
    19 C5      -1.2616  -1.5222  -0.1956   C.ar      1 1      0.0000
    20 C9      -0.9930   0.8204   0.3978   C.ar      1 1      0.0000
    21 C6      -2.6448  -1.3600  -0.2355   C.ar      1 1      0.0000
    22 H5      -0.8303  -2.4993  -0.3885   H         1 1      0.0000
    23 C8      -2.3773   0.9960   0.3497   C.ar      1 1      0.0000
    24 H8      -0.3587   1.6622   0.6611   H         1 1      0.0000
    25 C7      -3.1789  -0.0985   0.0317   C.ar      1 1      0.0000
    26 H6      -3.3053  -2.1852  -0.4687   H         1 1      0.0000
    27 H7      -2.8336   1.9545   0.5615   H         1 1      0.0000
    28 NO      -4.6411   0.0811  -0.0196   N.pl3     1 1      0.0000
    29 ON2     -5.1092   1.2523   0.2302   O.2       1 1      0.0000
    30 ON1     -5.3614  -0.9437  -0.3093   O.2       1 1      0.0000
    31 C15      3.8205  -1.9098   0.5931   C.3       1 1      0.0000
    32 H15C     3.7134  -1.9479  -0.4981   H         1 1      0.0000
    33 H15A     4.7298  -2.4670   0.8377   H         1 1      0.0000
    34 H15B     2.9869  -2.4412   1.0694   H         1 1      0.0000
@<TRIPOS>BOND
     1     1     2    1
     2     1    15    1
     3     1    16    1
     4     1    18    1
     5     2     3    1
     6     2     4    1
     7     2    14    1
     8     4     5    1
     9     4     8    2
    10     5     6    1
    11     5     7    1
    12     5    31    1
    13     8     9    1
    14     8    10    1
    15    10    11    1
    16    10    12    1
    17    10    13    1
    18    15    17    1
    19    18    19   ar
    20    18    20   ar
    21    19    21   ar
    22    19    22    1
    23    20    23   ar
    24    20    24    1
    25    21    25   ar
    26    21    26    1
    27    23    25   ar
    28    23    27    1
    29    25    28    1
    30    28    29   un
    31    28    30   un
    32    31    32    1
    33    31    33    1
    34    31    34    1
@<TRIPOS>SUBSTRUCTURE
     1 1           1 GROUP             0 ****  ****    0  
@<TRIPOS>MOLECULE
Molecule Name_00065
    34    34     1     0     0
SMALL
NO_CHARGES
****
Generated from the CSD

@<TRIPOS>ATOM
     1 C11      1.1222   0.6096   1.6776   C.3       1 1      0.0000
     2 C12      2.2254  -0.3515   1.1304   C.3       1 1      0.0000
     3 H12A     1.9192  -1.3865   1.3143   H         1 1      0.0000
     4 C13      2.4948  -0.0910  -0.3277   C.2       1 1      0.0000
     5 C14      1.6266  -0.7846  -1.3368   C.3       1 1      0.0000
     6 H14A     0.5860  -0.4969  -1.1209   H         1 1      0.0000
     7 H14B     1.7014  -1.8539  -1.0872   H         1 1      0.0000
     8 N        3.4486   0.7052  -0.7300   N.pl3     1 1      0.0000
     9 HN       3.5693   0.8040  -1.7431   H         1 1      0.0000
    10 C        4.4192   1.4850   0.0932   C.3       1 1      0.0000
    11 HA       4.6062   2.4342  -0.4145   H         1 1      0.0000
    12 HB       4.0047   1.6790   1.0827   H         1 1      0.0000
    13 HC       5.3559   0.9249   0.1784   H         1 1      0.0000
    14 H12B     3.1434  -0.1642   1.6927   H         1 1      0.0000
    15 O1       1.1239   0.3354   3.1335   O.3       1 1      0.0000
    16 H11      1.4152   1.6515   1.5019   H         1 1      0.0000
    17 OH1      0.3841   0.8176   3.5894   H         1 1      0.0000
    18 C10     -0.2128   0.3272   1.0204   C.ar      1 1      0.0000
    19 C5      -0.7262  -0.9806   1.0125   C.ar      1 1      0.0000
    20 C9      -0.9275   1.3651   0.4048   C.ar      1 1      0.0000
    21 C6      -1.9415  -1.2531   0.3882   C.ar      1 1      0.0000
    22 H5      -0.1873  -1.7808   1.5098   H         1 1      0.0000
    23 C8      -2.1410   1.1004  -0.2331   C.ar      1 1      0.0000
    24 H8      -0.5477   2.3828   0.4246   H         1 1      0.0000
    25 C7      -2.6256  -0.2060  -0.2313   C.ar      1 1      0.0000
    26 H6      -2.3597  -2.2515   0.3739   H         1 1      0.0000
    27 H7      -2.7094   1.8852  -0.7155   H         1 1      0.0000
    28 NO      -3.9068  -0.4908  -0.9024   N.pl3     1 1      0.0000
    29 ON2     -4.8621  -0.9716  -0.1887   O.2       1 1      0.0000
    30 ON1     -3.9925  -0.2434  -2.1611   O.2       1 1      0.0000
    31 C15      1.9568  -0.5367  -2.8175   C.3       1 1      0.0000
    32 H15C     2.9592  -0.8966  -3.0809   H         1 1      0.0000
    33 H15A     1.2506  -1.0951  -3.4393   H         1 1      0.0000
    34 H15B     1.8541   0.5201  -3.0947   H         1 1      0.0000
@<TRIPOS>BOND
     1     1     2    1
     2     1    15    1
     3     1    16    1
     4     1    18    1
     5     2     3    1
     6     2     4    1
     7     2    14    1
     8     4     5    1
     9     4     8    2
    10     5     6    1
    11     5     7    1
    12     5    31    1
    13     8     9    1
    14     8    10    1
    15    10    11    1
    16    10    12    1
    17    10    13    1
    18    15    17    1
    19    18    19   ar
    20    18    20   ar
    21    19    21   ar
    22    19    22    1
    23    20    23   ar
    24    20    24    1
    25    21    25   ar
    26    21    26    1
    27    23    25   ar
    28    23    27    1
    29    25    28    1
    30    28    29   un
    31    28    30   un
    32    31    32    1
    33    31    33    1
    34    31    34    1
@<TRIPOS>SUBSTRUCTURE
     1 1           1 GROUP             0 ****  ****    0  
@<TRIPOS>MOLECULE
Molecule Name_00066
    34    34     1     0     0
SMALL
NO_CHARGES
****
Generated from the CSD

@<TRIPOS>ATOM
     1 C11      1.2248  -0.8113  -1.6581   C.3       1 1      0.0000
     2 C12      2.2903   0.2469  -1.2276   C.3       1 1      0.0000
     3 H12A     1.9507   1.2405  -1.5375   H         1 1      0.0000
     4 C13      2.5564   0.1751   0.2524   C.2       1 1      0.0000
     5 C14      3.4455  -0.9259   0.7531   C.3       1 1      0.0000
     6 H14A     4.3985  -0.8459   0.2076   H         1 1      0.0000
     7 H14B     2.9726  -1.8546   0.3990   H         1 1      0.0000
     8 N        2.0409   1.0277   1.0966   N.pl3     1 1      0.0000
     9 HN       2.2623   0.8860   2.0874   H         1 1      0.0000
    10 C        1.1393   2.1841   0.8178   C.3       1 1      0.0000
    11 HA       1.4181   2.9992   1.4898   H         1 1      0.0000
    12 HB       1.2539   2.5116  -0.2158   H         1 1      0.0000
    13 HC       0.1021   1.8908   1.0090   H         1 1      0.0000
    14 H12B     3.2187   0.0245  -1.7593   H         1 1      0.0000
    15 O1       1.1988  -0.6868  -3.1341   O.3       1 1      0.0000
    16 H11      1.5654  -1.8164  -1.3824   H         1 1      0.0000
    17 OH1      0.4762  -1.2441  -3.5277   H         1 1      0.0000
    18 C10     -0.1142  -0.5211  -1.0126   C.ar      1 1      0.0000
    19 C5      -0.7012   0.7471  -1.1585   C.ar      1 1      0.0000
    20 C9      -0.7595  -1.5098  -0.2556   C.ar      1 1      0.0000
    21 C6      -1.9207   1.0299  -0.5471   C.ar      1 1      0.0000
    22 H5      -0.2161   1.5058  -1.7644   H         1 1      0.0000
    23 C8      -1.9765  -1.2329   0.3701   C.ar      1 1      0.0000
    24 H8      -0.3226  -2.4994  -0.1553   H         1 1      0.0000
    25 C7      -2.5347   0.0342   0.2142   C.ar      1 1      0.0000
    26 H6      -2.3948   1.9976  -0.6497   H         1 1      0.0000
    27 H7      -2.4921  -1.9799   0.9600   H         1 1      0.0000
    28 NO      -3.8200   0.3316   0.8720   N.pl3     1 1      0.0000
    29 ON2     -3.8473   1.2936   1.7245   O.2       1 1      0.0000
    30 ON1     -4.8366  -0.3892   0.5556   O.2       1 1      0.0000
    31 C15      3.6962  -0.9746   2.2689   C.3       1 1      0.0000
    32 H15C     2.7706  -1.1430   2.8334   H         1 1      0.0000
    33 H15A     4.3576  -1.8164   2.4947   H         1 1      0.0000
    34 H15B     4.1988  -0.0710   2.6361   H         1 1      0.0000
@<TRIPOS>BOND
     1     1     2    1
     2     1    15    1
     3     1    16    1
     4     1    18    1
     5     2     3    1
     6     2     4    1
     7     2    14    1
     8     4     5    1
     9     4     8    2
    10     5     6    1
    11     5     7    1
    12     5    31    1
    13     8     9    1
    14     8    10    1
    15    10    11    1
    16    10    12    1
    17    10    13    1
    18    15    17    1
    19    18    19   ar
    20    18    20   ar
    21    19    21   ar
    22    19    22    1
    23    20    23   ar
    24    20    24    1
    25    21    25   ar
    26    21    26    1
    27    23    25   ar
    28    23    27    1
    29    25    28    1
    30    28    29   un
    31    28    30   un
    32    31    32    1
    33    31    33    1
    34    31    34    1
@<TRIPOS>SUBSTRUCTURE
     1 1           1 GROUP             0 ****  ****    0  
@<TRIPOS>MOLECULE
Molecule Name_00067
    34    34     1     0     0
SMALL
NO_CHARGES
****
Generated from the CSD

@<TRIPOS>ATOM
     1 C11      1.0979   0.2292  -0.7185   C.3       1 1      0.0000
     2 C12      1.8582   0.5108   0.6167   C.3       1 1      0.0000
     3 H12A     1.3439  -0.0039   1.4347   H         1 1      0.0000
     4 C13      3.3040   0.1044   0.5117   C.2       1 1      0.0000
     5 C14      3.6496  -1.3332   0.7708   C.3       1 1      0.0000
     6 H14A     3.8350  -1.4319   1.8516   H         1 1      0.0000
     7 H14B     4.6249  -1.4821   0.2830   H         1 1      0.0000
     8 N        4.2481   0.9548   0.2101   N.pl3     1 1      0.0000
     9 HN       5.2054   0.5895   0.1825   H         1 1      0.0000
    10 C        4.1283   2.4139  -0.0808   C.3       1 1      0.0000
    11 HA       4.7901   2.6465  -0.9184   H         1 1      0.0000
    12 HB       3.1015   2.6621  -0.3506   H         1 1      0.0000
    13 HC       4.4372   2.9866   0.7995   H         1 1      0.0000
    14 H12B     1.8120   1.5854   0.8095   H         1 1      0.0000
    15 O1       1.4256   1.4093  -1.5521   O.3       1 1      0.0000
    16 H11      1.4987  -0.6749  -1.1920   H         1 1      0.0000
    17 OH1      0.9125   1.4001  -2.4031   H         1 1      0.0000
    18 C10     -0.3876   0.0705  -0.4696   C.ar      1 1      0.0000
    19 C5      -1.0836   1.0497   0.2589   C.ar      1 1      0.0000
    20 C9      -1.0646  -1.0602  -0.9493   C.ar      1 1      0.0000
    21 C6      -2.4450   0.8988   0.5137   C.ar      1 1      0.0000
    22 H5      -0.5674   1.9377   0.6097   H         1 1      0.0000
    23 C8      -2.4264  -1.2262  -0.6899   C.ar      1 1      0.0000
    24 H8      -0.5384  -1.8116  -1.5313   H         1 1      0.0000
    25 C7      -3.0922  -0.2432   0.0394   C.ar      1 1      0.0000
    26 H6      -3.0034   1.6423   1.0679   H         1 1      0.0000
    27 H7      -2.9694  -2.0910  -1.0493   H         1 1      0.0000
    28 NO      -4.5303  -0.4130   0.3153   N.pl3     1 1      0.0000
    29 ON2     -5.1043  -1.4730  -0.1319   O.2       1 1      0.0000
    30 ON1     -5.1255   0.5092   0.9849   O.2       1 1      0.0000
    31 C15      2.6294  -2.3832   0.3022   C.3       1 1      0.0000
    32 H15C     2.4974  -2.3707  -0.7869   H         1 1      0.0000
    33 H15A     2.9984  -3.3801   0.5611   H         1 1      0.0000
    34 H15B     1.6572  -2.2680   0.7980   H         1 1      0.0000
@<TRIPOS>BOND
     1     1     2    1
     2     1    15    1
     3     1    16    1
     4     1    18    1
     5     2     3    1
     6     2     4    1
     7     2    14    1
     8     4     5    1
     9     4     8    2
    10     5     6    1
    11     5     7    1
    12     5    31    1
    13     8     9    1
    14     8    10    1
    15    10    11    1
    16    10    12    1
    17    10    13    1
    18    15    17    1
    19    18    19   ar
    20    18    20   ar
    21    19    21   ar
    22    19    22    1
    23    20    23   ar
    24    20    24    1
    25    21    25   ar
    26    21    26    1
    27    23    25   ar
    28    23    27    1
    29    25    28    1
    30    28    29   un
    31    28    30   un
    32    31    32    1
    33    31    33    1
    34    31    34    1
@<TRIPOS>SUBSTRUCTURE
     1 1           1 GROUP             0 ****  ****    0  
@<TRIPOS>MOLECULE
Molecule Name_00068
    34    34     1     0     0
SMALL
NO_CHARGES
****
Generated from the CSD

@<TRIPOS>ATOM
     1 C11      1.1500   0.6363   1.6543   C.3       1 1      0.0000
     2 C12      2.2554  -0.3592   1.1775   C.3       1 1      0.0000
     3 H12A     1.9496  -1.3792   1.4317   H         1 1      0.0000
     4 C13      2.5284  -0.1997  -0.2943   C.2       1 1      0.0000
     5 C14      2.1376  -1.3258  -1.2068   C.3       1 1      0.0000
     6 H14A     1.0650  -1.5153  -1.0461   H         1 1      0.0000
     7 H14B     2.6624  -2.2076  -0.8088   H         1 1      0.0000
     8 N        3.0889   0.8714  -0.7884   N.pl3     1 1      0.0000
     9 HN       3.2536   0.8801  -1.8001   H         1 1      0.0000
    10 C        3.5533   2.0945  -0.0699   C.3       1 1      0.0000
    11 HA       2.9739   2.9437  -0.4398   H         1 1      0.0000
    12 HB       3.3926   1.9861   1.0029   H         1 1      0.0000
    13 HC       4.6154   2.2576  -0.2788   H         1 1      0.0000
    14 H12B     3.1718  -0.1325   1.7279   H         1 1      0.0000
    15 O1       1.1187   0.4327   3.1213   O.3       1 1      0.0000
    16 H11      1.4563   1.6661   1.4350   H         1 1      0.0000
    17 OH1      0.3740   0.9425   3.5377   H         1 1      0.0000
    18 C10     -0.1735   0.3337   0.9830   C.ar      1 1      0.0000
    19 C5      -0.3570   0.6451  -0.3747   C.ar      1 1      0.0000
    20 C9      -1.2208  -0.2397   1.7189   C.ar      1 1      0.0000
    21 C6      -1.5797   0.3929  -0.9931   C.ar      1 1      0.0000
    22 H5       0.4598   1.0656  -0.9526   H         1 1      0.0000
    23 C8      -2.4535  -0.4863   1.1114   C.ar      1 1      0.0000
    24 H8      -1.0804  -0.5028   2.7636   H         1 1      0.0000
    25 C7      -2.6112  -0.1633  -0.2349   C.ar      1 1      0.0000
    26 H6      -1.7428   0.6191  -2.0389   H         1 1      0.0000
    27 H7      -3.2762  -0.9271   1.6596   H         1 1      0.0000
    28 NO      -3.9103  -0.4224  -0.8816   N.pl3     1 1      0.0000
    29 ON2     -4.9659  -0.3588  -0.1503   O.2       1 1      0.0000
    30 ON1     -3.9107  -0.6982  -2.1374   O.2       1 1      0.0000
    31 C15      2.4315  -1.1346  -2.7035   C.3       1 1      0.0000
    32 H15C     3.5057  -1.0317  -2.9015   H         1 1      0.0000
    33 H15A     2.0964  -2.0216  -3.2494   H         1 1      0.0000
    34 H15B     1.8896  -0.2797  -3.1273   H         1 1      0.0000
@<TRIPOS>BOND
     1     1     2    1
     2     1    15    1
     3     1    16    1
     4     1    18    1
     5     2     3    1
     6     2     4    1
     7     2    14    1
     8     4     5    1
     9     4     8    2
    10     5     6    1
    11     5     7    1
    12     5    31    1
    13     8     9    1
    14     8    10    1
    15    10    11    1
    16    10    12    1
    17    10    13    1
    18    15    17    1
    19    18    19   ar
    20    18    20   ar
    21    19    21   ar
    22    19    22    1
    23    20    23   ar
    24    20    24    1
    25    21    25   ar
    26    21    26    1
    27    23    25   ar
    28    23    27    1
    29    25    28    1
    30    28    29   un
    31    28    30   un
    32    31    32    1
    33    31    33    1
    34    31    34    1
@<TRIPOS>SUBSTRUCTURE
     1 1           1 GROUP             0 ****  ****    0  
@<TRIPOS>MOLECULE
Molecule Name_00069
    34    34     1     0     0
SMALL
NO_CHARGES
****
Generated from the CSD

@<TRIPOS>ATOM
     1 C11      1.0534  -0.5639   0.2446   C.3       1 1      0.0000
     2 C12      1.7837   0.4908  -0.6467   C.3       1 1      0.0000
     3 H12A     1.3307   1.4734  -0.4792   H         1 1      0.0000
     4 C13      3.2645   0.4958  -0.3753   C.2       1 1      0.0000
     5 C14      4.0248  -0.7776  -0.6067   C.3       1 1      0.0000
     6 H14A     4.9551  -0.5086  -1.1305   H         1 1      0.0000
     7 H14B     3.4206  -1.3396  -1.3350   H         1 1      0.0000
     8 N        3.8924   1.5583   0.0516   N.pl3     1 1      0.0000
     9 HN       4.8972   1.4596   0.2283   H         1 1      0.0000
    10 C        3.3369   2.9120   0.3465   C.3       1 1      0.0000
    11 HA       4.1364   3.6430   0.2048   H         1 1      0.0000
    12 HB       2.5144   3.1386  -0.3322   H         1 1      0.0000
    13 HC       2.9910   2.9447   1.3845   H         1 1      0.0000
    14 H12B     1.6226   0.2167  -1.6921   H         1 1      0.0000
    15 O1       1.5210  -1.8572  -0.3065   O.3       1 1      0.0000
    16 H11      1.3874  -0.4682   1.2845   H         1 1      0.0000
    17 OH1      1.0429  -2.6197   0.1149   H         1 1      0.0000
    18 C10     -0.4490  -0.3906   0.1632   C.ar      1 1      0.0000
    19 C5      -0.9953   0.5938  -0.6773   C.ar      1 1      0.0000
    20 C9      -1.2935  -1.1986   0.9384   C.ar      1 1      0.0000
    21 C6      -2.3751   0.7763  -0.7390   C.ar      1 1      0.0000
    22 H5      -0.3454   1.2033  -1.2970   H         1 1      0.0000
    23 C8      -2.6770  -1.0163   0.8921   C.ar      1 1      0.0000
    24 H8      -0.8802  -1.9759   1.5750   H         1 1      0.0000
    25 C7      -3.1931  -0.0296   0.0545   C.ar      1 1      0.0000
    26 H6      -2.8193   1.5244  -1.3830   H         1 1      0.0000
    27 H7      -3.3480  -1.6272   1.4821   H         1 1      0.0000
    28 NO      -4.6531   0.1665   0.0010   N.pl3     1 1      0.0000
    29 ON2     -5.3856  -0.5879   0.7410   O.2       1 1      0.0000
    30 ON1     -5.1075   1.0785  -0.7831   O.2       1 1      0.0000
    31 C15      4.3339  -1.6316   0.6336   C.3       1 1      0.0000
    32 H15C     3.4244  -1.8976   1.1865   H         1 1      0.0000
    33 H15A     4.7922  -2.5724   0.3142   H         1 1      0.0000
    34 H15B     5.0508  -1.1436   1.3058   H         1 1      0.0000
@<TRIPOS>BOND
     1     1     2    1
     2     1    15    1
     3     1    16    1
     4     1    18    1
     5     2     3    1
     6     2     4    1
     7     2    14    1
     8     4     5    1
     9     4     8    2
    10     5     6    1
    11     5     7    1
    12     5    31    1
    13     8     9    1
    14     8    10    1
    15    10    11    1
    16    10    12    1
    17    10    13    1
    18    15    17    1
    19    18    19   ar
    20    18    20   ar
    21    19    21   ar
    22    19    22    1
    23    20    23   ar
    24    20    24    1
    25    21    25   ar
    26    21    26    1
    27    23    25   ar
    28    23    27    1
    29    25    28    1
    30    28    29   un
    31    28    30   un
    32    31    32    1
    33    31    33    1
    34    31    34    1
@<TRIPOS>SUBSTRUCTURE
     1 1           1 GROUP             0 ****  ****    0  
@<TRIPOS>MOLECULE
Molecule Name_00070
    34    34     1     0     0
SMALL
NO_CHARGES
****
Generated from the CSD

@<TRIPOS>ATOM
     1 C11      1.2022  -1.1820   1.4016   C.3       1 1      0.0000
     2 C12      2.2824  -1.2606   0.2758   C.3       1 1      0.0000
     3 H12A     1.9384  -1.9524  -0.5000   H         1 1      0.0000
     4 C13      2.5867   0.1058  -0.2780   C.2       1 1      0.0000
     5 C14      3.5344   0.9797   0.4910   C.3       1 1      0.0000
     6 H14A     4.4697   0.4123   0.6151   H         1 1      0.0000
     7 H14B     3.0941   1.0585   1.4966   H         1 1      0.0000
     8 N        2.0549   0.5437  -1.3874   N.pl3     1 1      0.0000
     9 HN       2.3058   1.4953  -1.6742   H         1 1      0.0000
    10 C        1.0975  -0.1505  -2.2981   C.3       1 1      0.0000
    11 HA       1.3379   0.1381  -3.3240   H         1 1      0.0000
    12 HB       1.1936  -1.2315  -2.1939   H         1 1      0.0000
    13 HC       0.0763   0.1633  -2.0595   H         1 1      0.0000
    14 H12B     3.1958  -1.6696   0.7144   H         1 1      0.0000
    15 O1       1.1386  -2.5721   1.9097   O.3       1 1      0.0000
    16 H11      1.5460  -0.5161   2.2019   H         1 1      0.0000
    17 OH1      0.4040  -2.6785   2.5705   H         1 1      0.0000
    18 C10     -0.1187  -0.6898   0.8475   C.ar      1 1      0.0000
    19 C5      -0.2712   0.6628   0.4997   C.ar      1 1      0.0000
    20 C9      -1.1939  -1.5779   0.6985   C.ar      1 1      0.0000
    21 C6      -1.4907   1.1286   0.0129   C.ar      1 1      0.0000
    22 H5       0.5667   1.3468   0.5904   H         1 1      0.0000
    23 C8      -2.4233  -1.1189   0.2220   C.ar      1 1      0.0000
    24 H8      -1.0780  -2.6295   0.9454   H         1 1      0.0000
    25 C7      -2.5500   0.2283  -0.1108   C.ar      1 1      0.0000
    26 H6      -1.6304   2.1650  -0.2667   H         1 1      0.0000
    27 H7      -3.2672  -1.7857   0.0997   H         1 1      0.0000
    28 NO      -3.8456   0.7180  -0.6153   N.pl3     1 1      0.0000
    29 ON2     -4.4358   1.6450   0.0521   O.2       1 1      0.0000
    30 ON1     -4.3092   0.1885  -1.6913   O.2       1 1      0.0000
    31 C15      3.8232   2.3699  -0.0982   C.3       1 1      0.0000
    32 H15C     2.9195   2.9899  -0.1505   H         1 1      0.0000
    33 H15A     4.5258   2.8958   0.5552   H         1 1      0.0000
    34 H15B     4.2947   2.3121  -1.0873   H         1 1      0.0000
@<TRIPOS>BOND
     1     1     2    1
     2     1    15    1
     3     1    16    1
     4     1    18    1
     5     2     3    1
     6     2     4    1
     7     2    14    1
     8     4     5    1
     9     4     8    2
    10     5     6    1
    11     5     7    1
    12     5    31    1
    13     8     9    1
    14     8    10    1
    15    10    11    1
    16    10    12    1
    17    10    13    1
    18    15    17    1
    19    18    19   ar
    20    18    20   ar
    21    19    21   ar
    22    19    22    1
    23    20    23   ar
    24    20    24    1
    25    21    25   ar
    26    21    26    1
    27    23    25   ar
    28    23    27    1
    29    25    28    1
    30    28    29   un
    31    28    30   un
    32    31    32    1
    33    31    33    1
    34    31    34    1
@<TRIPOS>SUBSTRUCTURE
     1 1           1 GROUP             0 ****  ****    0  
@<TRIPOS>MOLECULE
Molecule Name_00071
    34    34     1     0     0
SMALL
NO_CHARGES
****
Generated from the CSD

@<TRIPOS>ATOM
     1 C11      0.9662  -0.6652  -0.3312   C.3       1 1      0.0000
     2 C12      1.7248   0.2104   0.7166   C.3       1 1      0.0000
     3 H12A     1.4525  -0.1230   1.7233   H         1 1      0.0000
     4 C13      3.2118   0.1620   0.4866   C.2       1 1      0.0000
     5 C14      3.8721  -1.1854   0.4450   C.3       1 1      0.0000
     6 H14A     3.1021  -1.9143   0.1484   H         1 1      0.0000
     7 H14B     4.1152  -1.4139   1.4939   H         1 1      0.0000
     8 N        3.9293   1.2417   0.3287   N.pl3     1 1      0.0000
     9 HN       4.9375   1.1097   0.1985   H         1 1      0.0000
    10 C        3.4821   2.6657   0.3361   C.3       1 1      0.0000
    11 HA       4.1867   3.2439  -0.2663   H         1 1      0.0000
    12 HB       2.4837   2.7501  -0.0935   H         1 1      0.0000
    13 HC       3.4848   3.0422   1.3640   H         1 1      0.0000
    14 H12B     1.3879   1.2432   0.5985   H         1 1      0.0000
    15 O1       1.5212  -0.2045  -1.6252   O.3       1 1      0.0000
    16 H11      1.2150  -1.7228  -0.1830   H         1 1      0.0000
    17 OH1      1.0396  -0.6193  -2.3892   H         1 1      0.0000
    18 C10     -0.5307  -0.4630  -0.2198   C.ar      1 1      0.0000
    19 C5      -1.1340   0.6488  -0.8312   C.ar      1 1      0.0000
    20 C9      -1.3116  -1.3733   0.5071   C.ar      1 1      0.0000
    21 C6      -2.5066   0.8556  -0.7124   C.ar      1 1      0.0000
    22 H5      -0.5359   1.3411  -1.4153   H         1 1      0.0000
    23 C8      -2.6862  -1.1692   0.6414   C.ar      1 1      0.0000
    24 H8      -0.8561  -2.2468   0.9653   H         1 1      0.0000
    25 C7      -3.2591  -0.0559   0.0298   C.ar      1 1      0.0000
    26 H6      -2.9945   1.7017  -1.1791   H         1 1      0.0000
    27 H7      -3.3086  -1.8578   1.1984   H         1 1      0.0000
    28 NO      -4.7102   0.1638   0.1676   N.pl3     1 1      0.0000
    29 ON2     -5.4620  -0.8706   0.3013   O.2       1 1      0.0000
    30 ON1     -5.1381   1.3761   0.1443   O.2       1 1      0.0000
    31 C15      5.1126  -1.3183  -0.4530   C.3       1 1      0.0000
    32 H15C     5.9300  -0.6645  -0.1242   H         1 1      0.0000
    33 H15A     5.4890  -2.3439  -0.3928   H         1 1      0.0000
    34 H15B     4.8833  -1.1278  -1.5091   H         1 1      0.0000
@<TRIPOS>BOND
     1     1     2    1
     2     1    15    1
     3     1    16    1
     4     1    18    1
     5     2     3    1
     6     2     4    1
     7     2    14    1
     8     4     5    1
     9     4     8    2
    10     5     6    1
    11     5     7    1
    12     5    31    1
    13     8     9    1
    14     8    10    1
    15    10    11    1
    16    10    12    1
    17    10    13    1
    18    15    17    1
    19    18    19   ar
    20    18    20   ar
    21    19    21   ar
    22    19    22    1
    23    20    23   ar
    24    20    24    1
    25    21    25   ar
    26    21    26    1
    27    23    25   ar
    28    23    27    1
    29    25    28    1
    30    28    29   un
    31    28    30   un
    32    31    32    1
    33    31    33    1
    34    31    34    1
@<TRIPOS>SUBSTRUCTURE
     1 1           1 GROUP             0 ****  ****    0  
@<TRIPOS>MOLECULE
Molecule Name_00072
    34    34     1     0     0
SMALL
NO_CHARGES
****
Generated from the CSD

@<TRIPOS>ATOM
     1 C11      1.0018   0.0151  -0.7992   C.3       1 1      0.0000
     2 C12      1.8503   0.2218   0.4961   C.3       1 1      0.0000
     3 H12A     1.5338  -0.5072   1.2491   H         1 1      0.0000
     4 C13      3.3230   0.1264   0.1987   C.2       1 1      0.0000
     5 C14      3.8161  -1.0954  -0.5206   C.3       1 1      0.0000
     6 H14A     4.8373  -0.8761  -0.8686   H         1 1      0.0000
     7 H14B     3.1959  -1.1594  -1.4276   H         1 1      0.0000
     8 N        4.1674   1.0597   0.5469   N.pl3     1 1      0.0000
     9 HN       5.1536   0.8965   0.3199   H         1 1      0.0000
    10 C        3.8955   2.3408   1.2630   C.3       1 1      0.0000
    11 HA       4.6676   3.0584   0.9758   H         1 1      0.0000
    12 HB       2.9166   2.7300   0.9819   H         1 1      0.0000
    13 HC       3.9387   2.1696   2.3433   H         1 1      0.0000
    14 H12B     1.6372   1.2219   0.8814   H         1 1      0.0000
    15 O1       1.3633   1.1852  -1.6329   O.3       1 1      0.0000
    16 H11      1.3145  -0.9052  -1.3065   H         1 1      0.0000
    17 OH1      0.8056   1.2253  -2.4545   H         1 1      0.0000
    18 C10     -0.4755  -0.0484  -0.4713   C.ar      1 1      0.0000
    19 C5      -1.1142  -1.2946  -0.3582   C.ar      1 1      0.0000
    20 C9      -1.2093   1.1342  -0.2984   C.ar      1 1      0.0000
    21 C6      -2.4781  -1.3611  -0.0816   C.ar      1 1      0.0000
    22 H5      -0.5436  -2.2115  -0.4668   H         1 1      0.0000
    23 C8      -2.5787   1.0786  -0.0318   C.ar      1 1      0.0000
    24 H8      -0.7188   2.1014  -0.3634   H         1 1      0.0000
    25 C7      -3.1892  -0.1698   0.0701   C.ar      1 1      0.0000
    26 H6      -2.9908  -2.3095   0.0155   H         1 1      0.0000
    27 H7      -3.1654   1.9780   0.1044   H         1 1      0.0000
    28 NO      -4.6346  -0.2343   0.3524   N.pl3     1 1      0.0000
    29 ON2     -5.0086  -0.8391   1.4236   O.2       1 1      0.0000
    30 ON1     -5.4353   0.3161  -0.4896   O.2       1 1      0.0000
    31 C15      3.7878  -2.4167   0.2645   C.3       1 1      0.0000
    32 H15C     2.7677  -2.7047   0.5478   H         1 1      0.0000
    33 H15A     4.1738  -3.2186  -0.3718   H         1 1      0.0000
    34 H15B     4.4281  -2.3845   1.1551   H         1 1      0.0000
@<TRIPOS>BOND
     1     1     2    1
     2     1    15    1
     3     1    16    1
     4     1    18    1
     5     2     3    1
     6     2     4    1
     7     2    14    1
     8     4     5    1
     9     4     8    2
    10     5     6    1
    11     5     7    1
    12     5    31    1
    13     8     9    1
    14     8    10    1
    15    10    11    1
    16    10    12    1
    17    10    13    1
    18    15    17    1
    19    18    19   ar
    20    18    20   ar
    21    19    21   ar
    22    19    22    1
    23    20    23   ar
    24    20    24    1
    25    21    25   ar
    26    21    26    1
    27    23    25   ar
    28    23    27    1
    29    25    28    1
    30    28    29   un
    31    28    30   un
    32    31    32    1
    33    31    33    1
    34    31    34    1
@<TRIPOS>SUBSTRUCTURE
     1 1           1 GROUP             0 ****  ****    0  
@<TRIPOS>MOLECULE
Molecule Name_00073
    34    34     1     0     0
SMALL
NO_CHARGES
****
Generated from the CSD

@<TRIPOS>ATOM
     1 C11      1.0641  -0.4699  -0.3171   C.3       1 1      0.0000
     2 C12      1.8024   0.5937   0.5569   C.3       1 1      0.0000
     3 H12A     1.4019   0.5579   1.5752   H         1 1      0.0000
     4 C13      3.2921   0.3791   0.5260   C.2       1 1      0.0000
     5 C14      3.8108  -0.9912   0.8523   C.3       1 1      0.0000
     6 H14A     3.2837  -1.3298   1.7577   H         1 1      0.0000
     7 H14B     4.8573  -0.8331   1.1543   H         1 1      0.0000
     8 N        4.1295   1.3370   0.2316   N.pl3     1 1      0.0000
     9 HN       5.1266   1.1009   0.2567   H         1 1      0.0000
    10 C        3.8331   2.7575  -0.1180   C.3       1 1      0.0000
    11 HA       4.7311   3.3480   0.0787   H         1 1      0.0000
    12 HB       3.5693   2.8397  -1.1727   H         1 1      0.0000
    13 HC       3.0115   3.1219   0.5070   H         1 1      0.0000
    14 H12B     1.5843   1.5804   0.1410   H         1 1      0.0000
    15 O1       1.5499  -0.1814  -1.6866   O.3       1 1      0.0000
    16 H11      1.3794  -1.4779  -0.0226   H         1 1      0.0000
    17 OH1      1.0698  -0.7323  -2.3602   H         1 1      0.0000
    18 C10     -0.4379  -0.3336  -0.1774   C.ar      1 1      0.0000
    19 C5      -1.1390  -1.1801   0.6978   C.ar      1 1      0.0000
    20 C9      -1.1309   0.6233  -0.9331   C.ar      1 1      0.0000
    21 C6      -2.5236  -1.0779   0.8133   C.ar      1 1      0.0000
    22 H5      -0.6023  -1.9044   1.3022   H         1 1      0.0000
    23 C8      -2.5196   0.7264  -0.8328   C.ar      1 1      0.0000
    24 H8      -0.5940   1.2956  -1.5964   H         1 1      0.0000
    25 C7      -3.1917  -0.1285   0.0384   C.ar      1 1      0.0000
    26 H6      -3.0846  -1.7152   1.4847   H         1 1      0.0000
    27 H7      -3.0756   1.4565  -1.4068   H         1 1      0.0000
    28 NO      -4.6579  -0.0233   0.1490   N.pl3     1 1      0.0000
    29 ON2     -5.1522   0.2617   1.3012   O.2       1 1      0.0000
    30 ON1     -5.3554  -0.2243  -0.9123   O.2       1 1      0.0000
    31 C15      3.7080  -2.0500  -0.2573   C.3       1 1      0.0000
    32 H15C     3.4386  -1.6072  -1.2243   H         1 1      0.0000
    33 H15A     4.6854  -2.5230  -0.3914   H         1 1      0.0000
    34 H15B     3.0021  -2.8508  -0.0032   H         1 1      0.0000
@<TRIPOS>BOND
     1     1     2    1
     2     1    15    1
     3     1    16    1
     4     1    18    1
     5     2     3    1
     6     2     4    1
     7     2    14    1
     8     4     5    1
     9     4     8    2
    10     5     6    1
    11     5     7    1
    12     5    31    1
    13     8     9    1
    14     8    10    1
    15    10    11    1
    16    10    12    1
    17    10    13    1
    18    15    17    1
    19    18    19   ar
    20    18    20   ar
    21    19    21   ar
    22    19    22    1
    23    20    23   ar
    24    20    24    1
    25    21    25   ar
    26    21    26    1
    27    23    25   ar
    28    23    27    1
    29    25    28    1
    30    28    29   un
    31    28    30   un
    32    31    32    1
    33    31    33    1
    34    31    34    1
@<TRIPOS>SUBSTRUCTURE
     1 1           1 GROUP             0 ****  ****    0  
@<TRIPOS>MOLECULE
Molecule Name_00074
    34    34     1     0     0
SMALL
NO_CHARGES
****
Generated from the CSD

@<TRIPOS>ATOM
     1 C11      0.9403   0.3499   0.6411   C.3       1 1      0.0000
     2 C12      1.7335  -0.0975  -0.6281   C.3       1 1      0.0000
     3 H12A     1.4811   0.5692  -1.4591   H         1 1      0.0000
     4 C13      3.2140  -0.1295  -0.3570   C.2       1 1      0.0000
     5 C14      3.8951  -1.4671  -0.3368   C.3       1 1      0.0000
     6 H14A     3.2900  -2.1479  -0.9554   H         1 1      0.0000
     7 H14B     3.7866  -1.8242   0.6986   H         1 1      0.0000
     8 N        3.9076   0.9554  -0.1397   N.pl3     1 1      0.0000
     9 HN       4.9061   0.8321   0.0565   H         1 1      0.0000
    10 C        3.4364   2.3714  -0.1122   C.3       1 1      0.0000
    11 HA       4.2275   2.9985  -0.5299   H         1 1      0.0000
    12 HB       2.5328   2.4803  -0.7125   H         1 1      0.0000
    13 HC       3.2413   2.6696   0.9228   H         1 1      0.0000
    14 H12B     1.4060  -1.1062  -0.8909   H         1 1      0.0000
    15 O1       1.4456  -0.5592   1.6960   O.3       1 1      0.0000
    16 H11      1.1984   1.3845   0.8964   H         1 1      0.0000
    17 OH1      0.9379  -0.4426   2.5424   H         1 1      0.0000
    18 C10     -0.5523   0.2274   0.4148   C.ar      1 1      0.0000
    19 C5      -1.1819  -1.0203   0.5593   C.ar      1 1      0.0000
    20 C9      -1.3024   1.3529   0.0439   C.ar      1 1      0.0000
    21 C6      -2.5500  -1.1463   0.3285   C.ar      1 1      0.0000
    22 H5      -0.6082  -1.8875   0.8706   H         1 1      0.0000
    23 C8      -2.6720   1.2349  -0.2005   C.ar      1 1      0.0000
    24 H8      -0.8271   2.3253  -0.0497   H         1 1      0.0000
    25 C7      -3.2712  -0.0147  -0.0553   C.ar      1 1      0.0000
    26 H6      -3.0580  -2.0958   0.4388   H         1 1      0.0000
    27 H7      -3.2708   2.0893  -0.4886   H         1 1      0.0000
    28 NO      -4.7171  -0.1447  -0.3111   N.pl3     1 1      0.0000
    29 ON2     -5.4595   0.8801  -0.0836   O.2       1 1      0.0000
    30 ON1     -5.1503  -1.2749  -0.7447   O.2       1 1      0.0000
    31 C15      5.3658  -1.4992  -0.7830   C.3       1 1      0.0000
    32 H15C     6.0074  -0.8972  -0.1275   H         1 1      0.0000
    33 H15A     5.7347  -2.5275  -0.7233   H         1 1      0.0000
    34 H15B     5.4907  -1.1790  -1.8251   H         1 1      0.0000
@<TRIPOS>BOND
     1     1     2    1
     2     1    15    1
     3     1    16    1
     4     1    18    1
     5     2     3    1
     6     2     4    1
     7     2    14    1
     8     4     5    1
     9     4     8    2
    10     5     6    1
    11     5     7    1
    12     5    31    1
    13     8     9    1
    14     8    10    1
    15    10    11    1
    16    10    12    1
    17    10    13    1
    18    15    17    1
    19    18    19   ar
    20    18    20   ar
    21    19    21   ar
    22    19    22    1
    23    20    23   ar
    24    20    24    1
    25    21    25   ar
    26    21    26    1
    27    23    25   ar
    28    23    27    1
    29    25    28    1
    30    28    29   un
    31    28    30   un
    32    31    32    1
    33    31    33    1
    34    31    34    1
@<TRIPOS>SUBSTRUCTURE
     1 1           1 GROUP             0 ****  ****    0  
@<TRIPOS>MOLECULE
Molecule Name_00075
    34    34     1     0     0
SMALL
NO_CHARGES
****
Generated from the CSD

@<TRIPOS>ATOM
     1 C11      0.9971   0.1425   0.7880   C.3       1 1      0.0000
     2 C12      1.8603  -0.1849  -0.4721   C.3       1 1      0.0000
     3 H12A     1.4854   0.3959  -1.3211   H         1 1      0.0000
     4 C13      3.3201   0.0731  -0.2095   C.2       1 1      0.0000
     5 C14      4.2429  -1.1095  -0.1533   C.3       1 1      0.0000
     6 H14A     3.8085  -1.8255   0.5614   H         1 1      0.0000
     7 H14B     5.1608  -0.7299   0.3207   H         1 1      0.0000
     8 N        3.7950   1.2762  -0.0293   N.pl3     1 1      0.0000
     9 HN       4.7988   1.3508   0.1642   H         1 1      0.0000
    10 C        3.0633   2.5771  -0.0415   C.3       1 1      0.0000
    11 HA       3.7207   3.3299  -0.4829   H         1 1      0.0000
    12 HB       2.1552   2.4940  -0.6391   H         1 1      0.0000
    13 HC       2.8156   2.8645   0.9853   H         1 1      0.0000
    14 H12B     1.7303  -1.2451  -0.7023   H         1 1      0.0000
    15 O1       1.4193  -0.8868   1.7663   O.3       1 1      0.0000
    16 H11      1.2570   1.1371   1.1695   H         1 1      0.0000
    17 OH1      0.8617  -0.8496   2.5882   H         1 1      0.0000
    18 C10     -0.4802   0.0814   0.4600   C.ar      1 1      0.0000
    19 C5      -1.1861   1.2651   0.1872   C.ar      1 1      0.0000
    20 C9      -1.1474  -1.1522   0.4460   C.ar      1 1      0.0000
    21 C6      -2.5505   1.2199  -0.0908   C.ar      1 1      0.0000
    22 H5      -0.6670   2.2183   0.1728   H         1 1      0.0000
    23 C8      -2.5168  -1.2072   0.1793   C.ar      1 1      0.0000
    24 H8      -0.6047  -2.0741   0.6352   H         1 1      0.0000
    25 C7      -3.1946  -0.0183  -0.0828   C.ar      1 1      0.0000
    26 H6      -3.1142   2.1178  -0.3093   H         1 1      0.0000
    27 H7      -3.0527  -2.1475   0.1640   H         1 1      0.0000
    28 NO      -4.6403  -0.0708  -0.3659   N.pl3     1 1      0.0000
    29 ON2     -5.0431   0.3672  -1.5056   O.2       1 1      0.0000
    30 ON1     -5.4126  -0.5495   0.5438   O.2       1 1      0.0000
    31 C15      4.5551  -1.8048  -1.4882   C.3       1 1      0.0000
    32 H15C     5.0700  -1.1362  -2.1893   H         1 1      0.0000
    33 H15A     5.2311  -2.6451  -1.3037   H         1 1      0.0000
    34 H15B     3.6561  -2.2209  -1.9602   H         1 1      0.0000
@<TRIPOS>BOND
     1     1     2    1
     2     1    15    1
     3     1    16    1
     4     1    18    1
     5     2     3    1
     6     2     4    1
     7     2    14    1
     8     4     5    1
     9     4     8    2
    10     5     6    1
    11     5     7    1
    12     5    31    1
    13     8     9    1
    14     8    10    1
    15    10    11    1
    16    10    12    1
    17    10    13    1
    18    15    17    1
    19    18    19   ar
    20    18    20   ar
    21    19    21   ar
    22    19    22    1
    23    20    23   ar
    24    20    24    1
    25    21    25   ar
    26    21    26    1
    27    23    25   ar
    28    23    27    1
    29    25    28    1
    30    28    29   un
    31    28    30   un
    32    31    32    1
    33    31    33    1
    34    31    34    1
@<TRIPOS>SUBSTRUCTURE
     1 1           1 GROUP             0 ****  ****    0  
@<TRIPOS>MOLECULE
Molecule Name_00076
    34    34     1     0     0
SMALL
NO_CHARGES
****
Generated from the CSD

@<TRIPOS>ATOM
     1 C11      0.9330   0.2809  -0.7859   C.3       1 1      0.0000
     2 C12      1.7528   0.2877   0.5438   C.3       1 1      0.0000
     3 H12A     1.2522  -0.3563   1.2741   H         1 1      0.0000
     4 C13      3.1785  -0.1311   0.3022   C.2       1 1      0.0000
     5 C14      3.4749  -1.6007   0.2252   C.3       1 1      0.0000
     6 H14A     3.3124  -1.9095  -0.8190   H         1 1      0.0000
     7 H14B     2.6757  -2.0815   0.8095   H         1 1      0.0000
     8 N        4.1465   0.7344   0.1638   N.pl3     1 1      0.0000
     9 HN       5.0880   0.3540   0.0235   H         1 1      0.0000
    10 C        4.0757   2.2247   0.2070   C.3       1 1      0.0000
    11 HA       4.7972   2.6179  -0.5131   H         1 1      0.0000
    12 HB       3.0747   2.5631  -0.0616   H         1 1      0.0000
    13 HC       4.3356   2.5721   1.2120   H         1 1      0.0000
    14 H12B     1.7514   1.3083   0.9342   H         1 1      0.0000
    15 O1       1.2788   1.5814  -1.4054   O.3       1 1      0.0000
    16 H11      1.2782  -0.5348  -1.4322   H         1 1      0.0000
    17 OH1      0.7349   1.7453  -2.2209   H         1 1      0.0000
    18 C10     -0.5477   0.1304  -0.5052   C.ar      1 1      0.0000
    19 C5      -1.1752   0.9833   0.4182   C.ar      1 1      0.0000
    20 C9      -1.2883  -0.8699  -1.1517   C.ar      1 1      0.0000
    21 C6      -2.5314   0.8352   0.7006   C.ar      1 1      0.0000
    22 H5      -0.6100   1.7742   0.9011   H         1 1      0.0000
    23 C8      -2.6454  -1.0337  -0.8676   C.ar      1 1      0.0000
    24 H8      -0.8155  -1.5199  -1.8826   H         1 1      0.0000
    25 C7      -3.2426  -0.1781   0.0560   C.ar      1 1      0.0000
    26 H6      -3.0377   1.4837   1.4040   H         1 1      0.0000
    27 H7      -3.2367  -1.7992  -1.3535   H         1 1      0.0000
    28 NO      -4.6754  -0.3461   0.3590   N.pl3     1 1      0.0000
    29 ON2     -5.1708  -1.5293   0.2713   O.2       1 1      0.0000
    30 ON1     -5.3448   0.7002   0.6913   O.2       1 1      0.0000
    31 C15      4.8628  -2.0507   0.7091   C.3       1 1      0.0000
    32 H15C     5.0173  -1.8338   1.7734   H         1 1      0.0000
    33 H15A     4.9460  -3.1358   0.5958   H         1 1      0.0000
    34 H15B     5.6731  -1.6084   0.1160   H         1 1      0.0000
@<TRIPOS>BOND
     1     1     2    1
     2     1    15    1
     3     1    16    1
     4     1    18    1
     5     2     3    1
     6     2     4    1
     7     2    14    1
     8     4     5    1
     9     4     8    2
    10     5     6    1
    11     5     7    1
    12     5    31    1
    13     8     9    1
    14     8    10    1
    15    10    11    1
    16    10    12    1
    17    10    13    1
    18    15    17    1
    19    18    19   ar
    20    18    20   ar
    21    19    21   ar
    22    19    22    1
    23    20    23   ar
    24    20    24    1
    25    21    25   ar
    26    21    26    1
    27    23    25   ar
    28    23    27    1
    29    25    28    1
    30    28    29   un
    31    28    30   un
    32    31    32    1
    33    31    33    1
    34    31    34    1
@<TRIPOS>SUBSTRUCTURE
     1 1           1 GROUP             0 ****  ****    0  
@<TRIPOS>MOLECULE
Molecule Name_00077
    34    34     1     0     0
SMALL
NO_CHARGES
****
Generated from the CSD

@<TRIPOS>ATOM
     1 C11      1.1051  -0.5330   0.4329   C.3       1 1      0.0000
     2 C12      1.8463   0.0038  -0.8331   C.3       1 1      0.0000
     3 H12A     1.2687   0.8301  -1.2602   H         1 1      0.0000
     4 C13      3.2573   0.4107  -0.5017   C.2       1 1      0.0000
     5 C14      4.3075  -0.6613  -0.4685   C.3       1 1      0.0000
     6 H14A     5.2840  -0.1608  -0.5585   H         1 1      0.0000
     7 H14B     4.1689  -1.2223  -1.4052   H         1 1      0.0000
     8 N        3.5847   1.6483  -0.2438   N.pl3     1 1      0.0000
     9 HN       4.5664   1.8255  -0.0081   H         1 1      0.0000
    10 C        2.7092   2.8570  -0.2198   C.3       1 1      0.0000
    11 HA       3.2899   3.7019  -0.5975   H         1 1      0.0000
    12 HB       1.8368   2.7039  -0.8555   H         1 1      0.0000
    13 HC       2.3965   3.0590   0.8096   H         1 1      0.0000
    14 H12B     1.8805  -0.8025  -1.5696   H         1 1      0.0000
    15 O1       1.4949  -1.9617   0.4749   O.3       1 1      0.0000
    16 H11      1.4820  -0.0253   1.3287   H         1 1      0.0000
    17 OH1      1.5074  -2.3020   1.4087   H         1 1      0.0000
    18 C10     -0.3904  -0.3275   0.3095   C.ar      1 1      0.0000
    19 C5      -1.2710  -1.3599   0.6735   C.ar      1 1      0.0000
    20 C9      -0.8957   0.8841  -0.1840   C.ar      1 1      0.0000
    21 C6      -2.6470  -1.1879   0.5394   C.ar      1 1      0.0000
    22 H5      -0.8836  -2.2891   1.0792   H         1 1      0.0000
    23 C8      -2.2725   1.0625  -0.3326   C.ar      1 1      0.0000
    24 H8      -0.2226   1.6950  -0.4480   H         1 1      0.0000
    25 C7      -3.1241   0.0211   0.0307   C.ar      1 1      0.0000
    26 H6      -3.3451  -1.9667   0.8184   H         1 1      0.0000
    27 H7      -2.6852   1.9884  -0.7122   H         1 1      0.0000
    28 NO      -4.5786   0.2045  -0.1232   N.pl3     1 1      0.0000
    29 ON2     -4.9937   1.3267  -0.5939   O.2       1 1      0.0000
    30 ON1     -5.3457  -0.7673   0.2237   O.2       1 1      0.0000
    31 C15      4.2953  -1.6016   0.7476   C.3       1 1      0.0000
    32 H15C     4.0488  -2.6332   0.4671   H         1 1      0.0000
    33 H15A     5.2963  -1.6280   1.1886   H         1 1      0.0000
    34 H15B     3.6130  -1.2548   1.5340   H         1 1      0.0000
@<TRIPOS>BOND
     1     1     2    1
     2     1    15    1
     3     1    16    1
     4     1    18    1
     5     2     3    1
     6     2     4    1
     7     2    14    1
     8     4     5    1
     9     4     8    2
    10     5     6    1
    11     5     7    1
    12     5    31    1
    13     8     9    1
    14     8    10    1
    15    10    11    1
    16    10    12    1
    17    10    13    1
    18    15    17    1
    19    18    19   ar
    20    18    20   ar
    21    19    21   ar
    22    19    22    1
    23    20    23   ar
    24    20    24    1
    25    21    25   ar
    26    21    26    1
    27    23    25   ar
    28    23    27    1
    29    25    28    1
    30    28    29   un
    31    28    30   un
    32    31    32    1
    33    31    33    1
    34    31    34    1
@<TRIPOS>SUBSTRUCTURE
     1 1           1 GROUP             0 ****  ****    0  
@<TRIPOS>MOLECULE
Molecule Name_00078
    34    34     1     0     0
SMALL
NO_CHARGES
****
Generated from the CSD

@<TRIPOS>ATOM
     1 C11      1.2593  -1.3003  -0.8634   C.3       1 1      0.0000
     2 C12      2.2371  -0.0899  -1.0020   C.3       1 1      0.0000
     3 H12A     1.8289   0.6156  -1.7329   H         1 1      0.0000
     4 C13      2.4871   0.5588   0.3333   C.2       1 1      0.0000
     5 C14      2.7901  -0.3337   1.5016   C.3       1 1      0.0000
     6 H14A     1.9760  -1.0723   1.5645   H         1 1      0.0000
     7 H14B     2.6806   0.3115   2.3865   H         1 1      0.0000
     8 N        2.4447   1.8534   0.4993   N.pl3     1 1      0.0000
     9 HN       2.6078   2.2015   1.4496   H         1 1      0.0000
    10 C        2.1629   2.9129  -0.5136   C.3       1 1      0.0000
    11 HA       2.7890   3.7775  -0.2808   H         1 1      0.0000
    12 HB       2.4015   2.5517  -1.5142   H         1 1      0.0000
    13 HC       1.1079   3.1992  -0.4562   H         1 1      0.0000
    14 H12B     3.1867  -0.4676  -1.3886   H         1 1      0.0000
    15 O1       1.3169  -1.9387  -2.1990   O.3       1 1      0.0000
    16 H11      1.6369  -1.9996  -0.1079   H         1 1      0.0000
    17 OH1      0.6512  -2.6729  -2.2738   H         1 1      0.0000
    18 C10     -0.1305  -0.8301  -0.4878   C.ar      1 1      0.0000
    19 C5      -1.1370  -1.7709  -0.2123   C.ar      1 1      0.0000
    20 C9      -0.4183   0.5414  -0.4325   C.ar      1 1      0.0000
    21 C6      -2.4245  -1.3468   0.1094   C.ar      1 1      0.0000
    22 H5      -0.9106  -2.8323  -0.2299   H         1 1      0.0000
    23 C8      -1.7081   0.9766  -0.1219   C.ar      1 1      0.0000
    24 H8       0.3593   1.2756  -0.6237   H         1 1      0.0000
    25 C7      -2.6894   0.0232   0.1419   C.ar      1 1      0.0000
    26 H6      -3.2146  -2.0527   0.3308   H         1 1      0.0000
    27 H7      -1.9536   2.0298  -0.0743   H         1 1      0.0000
    28 NO      -4.0526   0.4772   0.4714   N.pl3     1 1      0.0000
    29 ON2     -4.2720   1.7438   0.4951   O.2       1 1      0.0000
    30 ON1     -4.9405  -0.4197   0.7170   O.2       1 1      0.0000
    31 C15      4.1562  -1.0386   1.4952   C.3       1 1      0.0000
    32 H15C     4.9878  -0.3235   1.5220   H         1 1      0.0000
    33 H15A     4.2443  -1.6548   2.3950   H         1 1      0.0000
    34 H15B     4.2712  -1.7138   0.6378   H         1 1      0.0000
@<TRIPOS>BOND
     1     1     2    1
     2     1    15    1
     3     1    16    1
     4     1    18    1
     5     2     3    1
     6     2     4    1
     7     2    14    1
     8     4     5    1
     9     4     8    2
    10     5     6    1
    11     5     7    1
    12     5    31    1
    13     8     9    1
    14     8    10    1
    15    10    11    1
    16    10    12    1
    17    10    13    1
    18    15    17    1
    19    18    19   ar
    20    18    20   ar
    21    19    21   ar
    22    19    22    1
    23    20    23   ar
    24    20    24    1
    25    21    25   ar
    26    21    26    1
    27    23    25   ar
    28    23    27    1
    29    25    28    1
    30    28    29   un
    31    28    30   un
    32    31    32    1
    33    31    33    1
    34    31    34    1
@<TRIPOS>SUBSTRUCTURE
     1 1           1 GROUP             0 ****  ****    0  
@<TRIPOS>MOLECULE
Molecule Name_00079
    34    34     1     0     0
SMALL
NO_CHARGES
****
Generated from the CSD

@<TRIPOS>ATOM
     1 C11      1.4200  -1.1685  -1.0563   C.3       1 1      0.0000
     2 C12      2.3633   0.0758  -1.1039   C.3       1 1      0.0000
     3 H12A     1.9206   0.8334  -1.7588   H         1 1      0.0000
     4 C13      2.6275   0.6073   0.2796   C.2       1 1      0.0000
     5 C14      2.9810  -0.3789   1.3547   C.3       1 1      0.0000
     6 H14A     3.5227   0.1752   2.1368   H         1 1      0.0000
     7 H14B     3.7217  -1.0486   0.8919   H         1 1      0.0000
     8 N        2.5552   1.8797   0.5642   N.pl3     1 1      0.0000
     9 HN       2.7313   2.1444   1.5387   H         1 1      0.0000
    10 C        2.2221   3.0185  -0.3414   C.3       1 1      0.0000
    11 HA       2.8339   3.8744  -0.0464   H         1 1      0.0000
    12 HB       2.4426   2.7551  -1.3761   H         1 1      0.0000
    13 HC       1.1627   3.2715  -0.2328   H         1 1      0.0000
    14 H12B     3.3130  -0.2391  -1.5430   H         1 1      0.0000
    15 O1       1.4591  -1.6783  -2.4468   O.3       1 1      0.0000
    16 H11      1.8342  -1.9243  -0.3786   H         1 1      0.0000
    17 OH1      0.8102  -2.4203  -2.5743   H         1 1      0.0000
    18 C10      0.0289  -0.7732  -0.6062   C.ar      1 1      0.0000
    19 C5      -0.9451  -1.7630  -0.3928   C.ar      1 1      0.0000
    20 C9      -0.2926   0.5791  -0.4198   C.ar      1 1      0.0000
    21 C6      -2.2341  -1.4059  -0.0029   C.ar      1 1      0.0000
    22 H5      -0.6919  -2.8117  -0.5121   H         1 1      0.0000
    23 C8      -1.5845   0.9481  -0.0399   C.ar      1 1      0.0000
    24 H8       0.4604   1.3491  -0.5624   H         1 1      0.0000
    25 C7      -2.5334  -0.0525   0.1601   C.ar      1 1      0.0000
    26 H6      -2.9996  -2.1509   0.1726   H         1 1      0.0000
    27 H7      -1.8557   1.9854   0.1089   H         1 1      0.0000
    28 NO      -3.8986   0.3315   0.5623   N.pl3     1 1      0.0000
    29 ON2     -4.1500   1.5842   0.7061   O.2       1 1      0.0000
    30 ON1     -4.7562  -0.6085   0.7470   O.2       1 1      0.0000
    31 C15      1.8190  -1.1769   1.9679   C.3       1 1      0.0000
    32 H15C     1.7678  -2.1986   1.5715   H         1 1      0.0000
    33 H15A     1.9781  -1.2675   3.0466   H         1 1      0.0000
    34 H15B     0.8529  -0.6744   1.8324   H         1 1      0.0000
@<TRIPOS>BOND
     1     1     2    1
     2     1    15    1
     3     1    16    1
     4     1    18    1
     5     2     3    1
     6     2     4    1
     7     2    14    1
     8     4     5    1
     9     4     8    2
    10     5     6    1
    11     5     7    1
    12     5    31    1
    13     8     9    1
    14     8    10    1
    15    10    11    1
    16    10    12    1
    17    10    13    1
    18    15    17    1
    19    18    19   ar
    20    18    20   ar
    21    19    21   ar
    22    19    22    1
    23    20    23   ar
    24    20    24    1
    25    21    25   ar
    26    21    26    1
    27    23    25   ar
    28    23    27    1
    29    25    28    1
    30    28    29   un
    31    28    30   un
    32    31    32    1
    33    31    33    1
    34    31    34    1
@<TRIPOS>SUBSTRUCTURE
     1 1           1 GROUP             0 ****  ****    0  
@<TRIPOS>MOLECULE
Molecule Name_00080
    34    34     1     0     0
SMALL
NO_CHARGES
****
Generated from the CSD

@<TRIPOS>ATOM
     1 C11      0.9407  -0.7456  -0.0025   C.3       1 1      0.0000
     2 C12      1.7229   0.5373   0.4248   C.3       1 1      0.0000
     3 H12A     1.4421   0.8006   1.4498   H         1 1      0.0000
     4 C13      3.2079   0.3394   0.2772   C.2       1 1      0.0000
     5 C14      3.8222  -0.8700   0.9201   C.3       1 1      0.0000
     6 H14A     3.2893  -1.7505   0.5290   H         1 1      0.0000
     7 H14B     3.5448  -0.7973   1.9827   H         1 1      0.0000
     8 N        3.9621   1.1786  -0.3803   N.pl3     1 1      0.0000
     9 HN       4.9655   0.9711  -0.4090   H         1 1      0.0000
    10 C        3.5635   2.4316  -1.0867   C.3       1 1      0.0000
    11 HA       4.3715   2.7061  -1.7689   H         1 1      0.0000
    12 HB       2.6481   2.2692  -1.6561   H         1 1      0.0000
    13 HC       3.4163   3.2311  -0.3535   H         1 1      0.0000
    14 H12B     1.4137   1.3538  -0.2321   H         1 1      0.0000
    15 O1       1.4834  -1.0423  -1.3487   O.3       1 1      0.0000
    16 H11      1.1798  -1.5717   0.6777   H         1 1      0.0000
    17 OH1      0.9871  -1.7886  -1.7782   H         1 1      0.0000
    18 C10     -0.5522  -0.4905  -0.0056   C.ar      1 1      0.0000
    19 C5      -1.0497   0.7580   0.4040   C.ar      1 1      0.0000
    20 C9      -1.4384  -1.5039  -0.3991   C.ar      1 1      0.0000
    21 C6      -2.4228   0.9923   0.4279   C.ar      1 1      0.0000
    22 H5      -0.3651   1.5519   0.6851   H         1 1      0.0000
    23 C8      -2.8166  -1.2829  -0.3682   C.ar      1 1      0.0000
    24 H8      -1.0611  -2.4650  -0.7370   H         1 1      0.0000
    25 C7      -3.2844  -0.0377   0.0470   C.ar      1 1      0.0000
    26 H6      -2.8292   1.9476   0.7343   H         1 1      0.0000
    27 H7      -3.5194  -2.0502  -0.6665   H         1 1      0.0000
    28 NO      -4.7386   0.2014   0.0805   N.pl3     1 1      0.0000
    29 ON2     -5.5051  -0.8044   0.3127   O.2       1 1      0.0000
    30 ON1     -5.1542   1.4004  -0.1259   O.2       1 1      0.0000
    31 C15      5.3407  -1.0431   0.7543   C.3       1 1      0.0000
    32 H15C     5.9009  -0.2200   1.2152   H         1 1      0.0000
    33 H15A     5.6536  -1.9588   1.2648   H         1 1      0.0000
    34 H15B     5.6339  -1.1521  -0.2974   H         1 1      0.0000
@<TRIPOS>BOND
     1     1     2    1
     2     1    15    1
     3     1    16    1
     4     1    18    1
     5     2     3    1
     6     2     4    1
     7     2    14    1
     8     4     5    1
     9     4     8    2
    10     5     6    1
    11     5     7    1
    12     5    31    1
    13     8     9    1
    14     8    10    1
    15    10    11    1
    16    10    12    1
    17    10    13    1
    18    15    17    1
    19    18    19   ar
    20    18    20   ar
    21    19    21   ar
    22    19    22    1
    23    20    23   ar
    24    20    24    1
    25    21    25   ar
    26    21    26    1
    27    23    25   ar
    28    23    27    1
    29    25    28    1
    30    28    29   un
    31    28    30   un
    32    31    32    1
    33    31    33    1
    34    31    34    1
@<TRIPOS>SUBSTRUCTURE
     1 1           1 GROUP             0 ****  ****    0  
@<TRIPOS>MOLECULE
Molecule Name_00081
    34    34     1     0     0
SMALL
NO_CHARGES
****
Generated from the CSD

@<TRIPOS>ATOM
     1 C11      0.9661  -0.4860  -0.6776   C.3       1 1      0.0000
     2 C12      1.7839   0.1084   0.5133   C.3       1 1      0.0000
     3 H12A     1.5815  -0.4810   1.4135   H         1 1      0.0000
     4 C13      3.2529   0.1597   0.1881   C.2       1 1      0.0000
     5 C14      3.9265  -1.1181  -0.2203   C.3       1 1      0.0000
     6 H14A     4.5155  -0.8990  -1.1244   H         1 1      0.0000
     7 H14B     3.1081  -1.7777  -0.5465   H         1 1      0.0000
     8 N        3.9443   1.2656   0.2541   N.pl3     1 1      0.0000
     9 HN       4.9433   1.1981   0.0344   H         1 1      0.0000
    10 C        3.4801   2.6321   0.6351   C.3       1 1      0.0000
    11 HA       4.1774   3.3567   0.2080   H         1 1      0.0000
    12 HB       2.4805   2.8150   0.2402   H         1 1      0.0000
    13 HC       3.4789   2.7246   1.7259   H         1 1      0.0000
    14 H12B     1.4305   1.1274   0.6883   H         1 1      0.0000
    15 O1       1.4341   0.3046  -1.8398   O.3       1 1      0.0000
    16 H11      1.2313  -1.5400  -0.8224   H         1 1      0.0000
    17 OH1      0.9077   0.0891  -2.6547   H         1 1      0.0000
    18 C10     -0.5220  -0.3539  -0.4284   C.ar      1 1      0.0000
    19 C5      -1.1709   0.8634  -0.6951   C.ar      1 1      0.0000
    20 C9      -1.2485  -1.4384   0.0845   C.ar      1 1      0.0000
    21 C6      -2.5345   1.0007  -0.4450   C.ar      1 1      0.0000
    22 H5      -0.6161   1.6962  -1.1155   H         1 1      0.0000
    23 C8      -2.6131  -1.3076   0.3489   C.ar      1 1      0.0000
    24 H8      -0.7586  -2.3894   0.2737   H         1 1      0.0000
    25 C7      -3.2317  -0.0882   0.0807   C.ar      1 1      0.0000
    26 H6      -3.0571   1.9268  -0.6476   H         1 1      0.0000
    27 H7      -3.1938  -2.1305   0.7456   H         1 1      0.0000
    28 NO      -4.6726   0.0551   0.3571   N.pl3     1 1      0.0000
    29 ON2     -5.4070  -0.9962   0.2641   O.2       1 1      0.0000
    30 ON1     -5.1096   1.2223   0.6729   O.2       1 1      0.0000
    31 C15      4.8033  -1.8049   0.8392   C.3       1 1      0.0000
    32 H15C     4.2214  -2.1143   1.7164   H         1 1      0.0000
    33 H15A     5.2326  -2.7159   0.4115   H         1 1      0.0000
    34 H15B     5.6460  -1.1758   1.1524   H         1 1      0.0000
@<TRIPOS>BOND
     1     1     2    1
     2     1    15    1
     3     1    16    1
     4     1    18    1
     5     2     3    1
     6     2     4    1
     7     2    14    1
     8     4     5    1
     9     4     8    2
    10     5     6    1
    11     5     7    1
    12     5    31    1
    13     8     9    1
    14     8    10    1
    15    10    11    1
    16    10    12    1
    17    10    13    1
    18    15    17    1
    19    18    19   ar
    20    18    20   ar
    21    19    21   ar
    22    19    22    1
    23    20    23   ar
    24    20    24    1
    25    21    25   ar
    26    21    26    1
    27    23    25   ar
    28    23    27    1
    29    25    28    1
    30    28    29   un
    31    28    30   un
    32    31    32    1
    33    31    33    1
    34    31    34    1
@<TRIPOS>SUBSTRUCTURE
     1 1           1 GROUP             0 ****  ****    0  
@<TRIPOS>MOLECULE
Molecule Name_00082
    34    34     1     0     0
SMALL
NO_CHARGES
****
Generated from the CSD

@<TRIPOS>ATOM
     1 C11      1.1984   0.6062  -1.7280   C.3       1 1      0.0000
     2 C12      2.2848   1.0367  -0.6913   C.3       1 1      0.0000
     3 H12A     1.9605   1.9586  -0.1977   H         1 1      0.0000
     4 C13      2.5592  -0.0674   0.2945   C.2       1 1      0.0000
     5 C14      2.9252  -1.4182  -0.2484   C.3       1 1      0.0000
     6 H14A     3.8064  -1.2798  -0.8938   H         1 1      0.0000
     7 H14B     2.0973  -1.6862  -0.9223   H         1 1      0.0000
     8 N        2.4851   0.1150   1.5855   N.pl3     1 1      0.0000
     9 HN       2.6687  -0.7016   2.1773   H         1 1      0.0000
    10 C        2.1404   1.3612   2.3311   C.3       1 1      0.0000
    11 HA       2.7403   1.3853   3.2439   H         1 1      0.0000
    12 HB       2.3674   2.2387   1.7252   H         1 1      0.0000
    13 HC       1.0774   1.3464   2.5922   H         1 1      0.0000
    14 H12B     3.2058   1.2510  -1.2390   H         1 1      0.0000
    15 O1       1.1521   1.7509  -2.6673   O.3       1 1      0.0000
    16 H11      1.5291  -0.2919  -2.2629   H         1 1      0.0000
    17 OH1      0.4160   1.6436  -3.3264   H         1 1      0.0000
    18 C10     -0.1267   0.3447  -1.0427   C.ar      1 1      0.0000
    19 C5      -0.5152  -0.9735  -0.7504   C.ar      1 1      0.0000
    20 C9      -0.9732   1.4142  -0.7163   C.ar      1 1      0.0000
    21 C6      -1.7436  -1.2242  -0.1428   C.ar      1 1      0.0000
    22 H5       0.1489  -1.8009  -0.9791   H         1 1      0.0000
    23 C8      -2.2111   1.1728  -0.1174   C.ar      1 1      0.0000
    24 H8      -0.6712   2.4377  -0.9199   H         1 1      0.0000
    25 C7      -2.5749  -0.1439   0.1572   C.ar      1 1      0.0000
    26 H6      -2.0620  -2.2306   0.0969   H         1 1      0.0000
    27 H7      -2.8811   1.9823   0.1426   H         1 1      0.0000
    28 NO      -3.8804  -0.4044   0.7904   N.pl3     1 1      0.0000
    29 ON2     -3.8842  -0.9948   1.9326   O.2       1 1      0.0000
    30 ON1     -4.9373  -0.0275   0.1628   O.2       1 1      0.0000
    31 C15      3.1828  -2.5293   0.7823   C.3       1 1      0.0000
    32 H15C     2.2903  -2.7491   1.3813   H         1 1      0.0000
    33 H15A     3.4408  -3.4526   0.2551   H         1 1      0.0000
    34 H15B     4.0279  -2.2959   1.4422   H         1 1      0.0000
@<TRIPOS>BOND
     1     1     2    1
     2     1    15    1
     3     1    16    1
     4     1    18    1
     5     2     3    1
     6     2     4    1
     7     2    14    1
     8     4     5    1
     9     4     8    2
    10     5     6    1
    11     5     7    1
    12     5    31    1
    13     8     9    1
    14     8    10    1
    15    10    11    1
    16    10    12    1
    17    10    13    1
    18    15    17    1
    19    18    19   ar
    20    18    20   ar
    21    19    21   ar
    22    19    22    1
    23    20    23   ar
    24    20    24    1
    25    21    25   ar
    26    21    26    1
    27    23    25   ar
    28    23    27    1
    29    25    28    1
    30    28    29   un
    31    28    30   un
    32    31    32    1
    33    31    33    1
    34    31    34    1
@<TRIPOS>SUBSTRUCTURE
     1 1           1 GROUP             0 ****  ****    0  
@<TRIPOS>MOLECULE
Molecule Name_00083
    34    34     1     0     0
SMALL
NO_CHARGES
****
Generated from the CSD

@<TRIPOS>ATOM
     1 C11      1.1986   0.6747   1.5665   C.3       1 1      0.0000
     2 C12      2.2920  -0.2451   0.9350   C.3       1 1      0.0000
     3 H12A     2.0521  -1.2894   1.1599   H         1 1      0.0000
     4 C13      2.4173   0.0015  -0.5448   C.2       1 1      0.0000
     5 C14      1.9861  -1.0926  -1.4777   C.3       1 1      0.0000
     6 H14A     1.8709  -0.6408  -2.4751   H         1 1      0.0000
     7 H14B     0.9705  -1.3607  -1.1492   H         1 1      0.0000
     8 N        2.8859   1.1202  -1.0289   N.pl3     1 1      0.0000
     9 HN       2.9532   1.1880  -2.0495   H         1 1      0.0000
    10 C        3.3681   2.3243  -0.2902   C.3       1 1      0.0000
    11 HA       2.5794   3.0797  -0.3247   H         1 1      0.0000
    12 HB       3.5810   2.0700   0.7483   H         1 1      0.0000
    13 HC       4.2684   2.7129  -0.7768   H         1 1      0.0000
    14 H12B     3.2469  -0.0066   1.4096   H         1 1      0.0000
    15 O1       1.2721   0.3488   3.0098   O.3       1 1      0.0000
    16 H11      1.4650   1.7275   1.4159   H         1 1      0.0000
    17 OH1      0.5458   0.8003   3.5162   H         1 1      0.0000
    18 C10     -0.1602   0.3906   0.9607   C.ar      1 1      0.0000
    19 C5      -0.6414  -0.9284   0.9092   C.ar      1 1      0.0000
    20 C9      -0.9295   1.4390   0.4355   C.ar      1 1      0.0000
    21 C6      -1.8793  -1.2012   0.3310   C.ar      1 1      0.0000
    22 H5      -0.0592  -1.7382   1.3374   H         1 1      0.0000
    23 C8      -2.1663   1.1748  -0.1560   C.ar      1 1      0.0000
    24 H8      -0.5740   2.4641   0.4901   H         1 1      0.0000
    25 C7      -2.6184  -0.1426  -0.1991   C.ar      1 1      0.0000
    26 H6      -2.2732  -2.2084   0.2847   H         1 1      0.0000
    27 H7      -2.7769   1.9676  -0.5686   H         1 1      0.0000
    28 NO      -3.9241  -0.4270  -0.8215   N.pl3     1 1      0.0000
    29 ON2     -4.8243   0.4895  -0.7690   O.2       1 1      0.0000
    30 ON1     -4.0858  -1.5746  -1.3782   O.2       1 1      0.0000
    31 C15      2.8907  -2.3333  -1.5507   C.3       1 1      0.0000
    32 H15C     2.9520  -2.8546  -0.5873   H         1 1      0.0000
    33 H15A     2.4645  -3.0445  -2.2646   H         1 1      0.0000
    34 H15B     3.8991  -2.0916  -1.9098   H         1 1      0.0000
@<TRIPOS>BOND
     1     1     2    1
     2     1    15    1
     3     1    16    1
     4     1    18    1
     5     2     3    1
     6     2     4    1
     7     2    14    1
     8     4     5    1
     9     4     8    2
    10     5     6    1
    11     5     7    1
    12     5    31    1
    13     8     9    1
    14     8    10    1
    15    10    11    1
    16    10    12    1
    17    10    13    1
    18    15    17    1
    19    18    19   ar
    20    18    20   ar
    21    19    21   ar
    22    19    22    1
    23    20    23   ar
    24    20    24    1
    25    21    25   ar
    26    21    26    1
    27    23    25   ar
    28    23    27    1
    29    25    28    1
    30    28    29   un
    31    28    30   un
    32    31    32    1
    33    31    33    1
    34    31    34    1
@<TRIPOS>SUBSTRUCTURE
     1 1           1 GROUP             0 ****  ****    0  
@<TRIPOS>MOLECULE
Molecule Name_00084
    34    34     1     0     0
SMALL
NO_CHARGES
****
Generated from the CSD

@<TRIPOS>ATOM
     1 C11      1.0523  -0.4348   0.4565   C.3       1 1      0.0000
     2 C12      1.8119   0.0986  -0.8000   C.3       1 1      0.0000
     3 H12A     1.3414   1.0298  -1.1318   H         1 1      0.0000
     4 C13      3.2784   0.2768  -0.5100   C.2       1 1      0.0000
     5 C14      4.0563  -0.9258  -0.0607   C.3       1 1      0.0000
     6 H14A     5.0119  -0.9161  -0.6074   H         1 1      0.0000
     7 H14B     3.4946  -1.7882  -0.4510   H         1 1      0.0000
     8 N        3.8794   1.4296  -0.6336   N.pl3     1 1      0.0000
     9 HN       4.8755   1.4577  -0.3934   H         1 1      0.0000
    10 C        3.3028   2.7389  -1.0590   C.3       1 1      0.0000
    11 HA       4.0709   3.2812  -1.6154   H         1 1      0.0000
    12 HB       2.4358   2.5791  -1.7004   H         1 1      0.0000
    13 HC       3.0171   3.3153  -0.1733   H         1 1      0.0000
    14 H12B     1.7022  -0.6401  -1.5977   H         1 1      0.0000
    15 O1       1.4872  -1.8484   0.5422   O.3       1 1      0.0000
    16 H11      1.3863   0.1047   1.3507   H         1 1      0.0000
    17 OH1      0.9884  -2.3341   1.2515   H         1 1      0.0000
    18 C10     -0.4449  -0.2821   0.2862   C.ar      1 1      0.0000
    19 C5      -1.0206   0.9995   0.2741   C.ar      1 1      0.0000
    20 C9      -1.2581  -1.4176   0.1589   C.ar      1 1      0.0000
    21 C6      -2.3997   1.1475   0.1430   C.ar      1 1      0.0000
    22 H5      -0.3911   1.8806   0.3472   H         1 1      0.0000
    23 C8      -2.6422  -1.2804   0.0381   C.ar      1 1      0.0000
    24 H8      -0.8187  -2.4111   0.1463   H         1 1      0.0000
    25 C7      -3.1887   0.0013   0.0341   C.ar      1 1      0.0000
    26 H6      -2.8654   2.1245   0.1255   H         1 1      0.0000
    27 H7      -3.2896  -2.1424  -0.0605   H         1 1      0.0000
    28 NO      -4.6495   0.1520  -0.0941   N.pl3     1 1      0.0000
    29 ON2     -5.2882  -0.7486  -0.7530   O.2       1 1      0.0000
    30 ON1     -5.1978   1.1751   0.4587   O.2       1 1      0.0000
    31 C15      4.3028  -1.0629   1.4504   C.3       1 1      0.0000
    32 H15C     3.3658  -1.1640   2.0122   H         1 1      0.0000
    33 H15A     4.8792  -1.9740   1.6370   H         1 1      0.0000
    34 H15B     4.8917  -0.2289   1.8525   H         1 1      0.0000
@<TRIPOS>BOND
     1     1     2    1
     2     1    15    1
     3     1    16    1
     4     1    18    1
     5     2     3    1
     6     2     4    1
     7     2    14    1
     8     4     5    1
     9     4     8    2
    10     5     6    1
    11     5     7    1
    12     5    31    1
    13     8     9    1
    14     8    10    1
    15    10    11    1
    16    10    12    1
    17    10    13    1
    18    15    17    1
    19    18    19   ar
    20    18    20   ar
    21    19    21   ar
    22    19    22    1
    23    20    23   ar
    24    20    24    1
    25    21    25   ar
    26    21    26    1
    27    23    25   ar
    28    23    27    1
    29    25    28    1
    30    28    29   un
    31    28    30   un
    32    31    32    1
    33    31    33    1
    34    31    34    1
@<TRIPOS>SUBSTRUCTURE
     1 1           1 GROUP             0 ****  ****    0  
@<TRIPOS>MOLECULE
Molecule Name_00085
    34    34     1     0     0
SMALL
NO_CHARGES
****
Generated from the CSD

@<TRIPOS>ATOM
     1 C11      1.0219   0.1401   0.5470   C.3       1 1      0.0000
     2 C12      1.7815   0.1062  -0.8176   C.3       1 1      0.0000
     3 H12A     1.4656   0.9626  -1.4222   H         1 1      0.0000
     4 C13      3.2718   0.0806  -0.6065   C.2       1 1      0.0000
     5 C14      3.9255  -1.2511  -0.3772   C.3       1 1      0.0000
     6 H14A     4.7811  -1.3148  -1.0672   H         1 1      0.0000
     7 H14B     3.1937  -1.9909  -0.7355   H         1 1      0.0000
     8 N        3.9967   1.1669  -0.6140   N.pl3     1 1      0.0000
     9 HN       5.0004   1.0519  -0.4404   H         1 1      0.0000
    10 C        3.5564   2.5782  -0.8190   C.3       1 1      0.0000
    11 HA       4.3404   3.0992  -1.3737   H         1 1      0.0000
    12 HB       2.6289   2.6050  -1.3913   H         1 1      0.0000
    13 HC       3.4149   3.0598   0.1538   H         1 1      0.0000
    14 H12B     1.4887  -0.8062  -1.3427   H         1 1      0.0000
    15 O1       1.5563  -1.0417   1.2630   O.3       1 1      0.0000
    16 H11      1.2857   1.0507   1.0978   H         1 1      0.0000
    17 OH1      1.0712  -1.1921   2.1173   H         1 1      0.0000
    18 C10     -0.4760   0.0784   0.3317   C.ar      1 1      0.0000
    19 C5      -1.2359   1.2599   0.3580   C.ar      1 1      0.0000
    20 C9      -1.1068  -1.1569   0.1243   C.ar      1 1      0.0000
    21 C6      -2.6175   1.2090   0.1858   C.ar      1 1      0.0000
    22 H5      -0.7472   2.2195   0.4934   H         1 1      0.0000
    23 C8      -2.4920  -1.2197  -0.0384   C.ar      1 1      0.0000
    24 H8      -0.5240  -2.0727   0.0816   H         1 1      0.0000
    25 C7      -3.2233  -0.0342  -0.0028   C.ar      1 1      0.0000
    26 H6      -3.2231   2.1062   0.1968   H         1 1      0.0000
    27 H7      -3.0006  -2.1617  -0.1988   H         1 1      0.0000
    28 NO      -4.6861  -0.0947  -0.1750   N.pl3     1 1      0.0000
    29 ON2     -5.4201   0.3529   0.7811   O.2       1 1      0.0000
    30 ON1     -5.1410  -0.5926  -1.2696   O.2       1 1      0.0000
    31 C15      4.3701  -1.5628   1.0609   C.3       1 1      0.0000
    32 H15C     3.8944  -2.4715   1.4503   H         1 1      0.0000
    33 H15A     5.4487  -1.7462   1.0694   H         1 1      0.0000
    34 H15B     4.1873  -0.7232   1.7434   H         1 1      0.0000
@<TRIPOS>BOND
     1     1     2    1
     2     1    15    1
     3     1    16    1
     4     1    18    1
     5     2     3    1
     6     2     4    1
     7     2    14    1
     8     4     5    1
     9     4     8    2
    10     5     6    1
    11     5     7    1
    12     5    31    1
    13     8     9    1
    14     8    10    1
    15    10    11    1
    16    10    12    1
    17    10    13    1
    18    15    17    1
    19    18    19   ar
    20    18    20   ar
    21    19    21   ar
    22    19    22    1
    23    20    23   ar
    24    20    24    1
    25    21    25   ar
    26    21    26    1
    27    23    25   ar
    28    23    27    1
    29    25    28    1
    30    28    29   un
    31    28    30   un
    32    31    32    1
    33    31    33    1
    34    31    34    1
@<TRIPOS>SUBSTRUCTURE
     1 1           1 GROUP             0 ****  ****    0  
@<TRIPOS>MOLECULE
Molecule Name_00086
    34    34     1     0     0
SMALL
NO_CHARGES
****
Generated from the CSD

@<TRIPOS>ATOM
     1 C11      0.9829  -0.1109   0.8881   C.3       1 1      0.0000
     2 C12      1.8201  -0.3844  -0.4021   C.3       1 1      0.0000
     3 H12A     1.3110   0.0681  -1.2594   H         1 1      0.0000
     4 C13      3.2299   0.1208  -0.2490   C.2       1 1      0.0000
     5 C14      4.2148  -0.7541   0.4707   C.3       1 1      0.0000
     6 H14A     3.6334  -1.4550   1.0895   H         1 1      0.0000
     7 H14B     4.7270  -0.0826   1.1764   H         1 1      0.0000
     8 N        3.6105   1.2801  -0.7144   N.pl3     1 1      0.0000
     9 HN       4.5852   1.5475  -0.5435   H         1 1      0.0000
    10 C        2.8042   2.2975  -1.4509   C.3       1 1      0.0000
    11 HA       3.4523   2.7685  -2.1938   H         1 1      0.0000
    12 HB       1.9631   1.8204  -1.9544   H         1 1      0.0000
    13 HC       2.4439   3.0547  -0.7472   H         1 1      0.0000
    14 H12B     1.8528  -1.4653  -0.5587   H         1 1      0.0000
    15 O1       1.3508  -1.2372   1.7774   O.3       1 1      0.0000
    16 H11      1.3005   0.8338   1.3450   H         1 1      0.0000
    17 OH1      0.8002  -1.2347   2.6048   H         1 1      0.0000
    18 C10     -0.4971  -0.0627   0.5700   C.ar      1 1      0.0000
    19 C5      -1.0923  -1.1111  -0.1515   C.ar      1 1      0.0000
    20 C9      -1.2693   1.0345   0.9787   C.ar      1 1      0.0000
    21 C6      -2.4478  -1.0623  -0.4698   C.ar      1 1      0.0000
    22 H5      -0.5026  -1.9729  -0.4472   H         1 1      0.0000
    23 C8      -2.6260   1.0981   0.6553   C.ar      1 1      0.0000
    24 H8      -0.8213   1.8392   1.5550   H         1 1      0.0000
    25 C7      -3.1908   0.0480  -0.0656   C.ar      1 1      0.0000
    26 H6      -2.9295  -1.8604  -1.0199   H         1 1      0.0000
    27 H7      -3.2413   1.9352   0.9592   H         1 1      0.0000
    28 NO      -4.6231   0.1096  -0.4090   N.pl3     1 1      0.0000
    29 ON2     -5.1471   1.2706  -0.5835   O.2       1 1      0.0000
    30 ON1     -5.2635  -1.0006  -0.5118   O.2       1 1      0.0000
    31 C15      5.2252  -1.5173  -0.4009   C.3       1 1      0.0000
    32 H15C     5.8786  -0.8383  -0.9628   H         1 1      0.0000
    33 H15A     5.8758  -2.1137   0.2458   H         1 1      0.0000
    34 H15B     4.7349  -2.2183  -1.0881   H         1 1      0.0000
@<TRIPOS>BOND
     1     1     2    1
     2     1    15    1
     3     1    16    1
     4     1    18    1
     5     2     3    1
     6     2     4    1
     7     2    14    1
     8     4     5    1
     9     4     8    2
    10     5     6    1
    11     5     7    1
    12     5    31    1
    13     8     9    1
    14     8    10    1
    15    10    11    1
    16    10    12    1
    17    10    13    1
    18    15    17    1
    19    18    19   ar
    20    18    20   ar
    21    19    21   ar
    22    19    22    1
    23    20    23   ar
    24    20    24    1
    25    21    25   ar
    26    21    26    1
    27    23    25   ar
    28    23    27    1
    29    25    28    1
    30    28    29   un
    31    28    30   un
    32    31    32    1
    33    31    33    1
    34    31    34    1
@<TRIPOS>SUBSTRUCTURE
     1 1           1 GROUP             0 ****  ****    0  
@<TRIPOS>MOLECULE
Molecule Name_00087
    34    34     1     0     0
SMALL
NO_CHARGES
****
Generated from the CSD

@<TRIPOS>ATOM
     1 C11      1.0661   0.3027   0.6214   C.3       1 1      0.0000
     2 C12      1.8630   0.2764  -0.7219   C.3       1 1      0.0000
     3 H12A     1.5555   1.1296  -1.3351   H         1 1      0.0000
     4 C13      3.3472   0.2653  -0.4700   C.2       1 1      0.0000
     5 C14      4.1088  -0.9807  -0.8175   C.3       1 1      0.0000
     6 H14A     5.0590  -0.9447  -0.2624   H         1 1      0.0000
     7 H14B     4.3753  -0.8628  -1.8789   H         1 1      0.0000
     8 N        3.9770   1.2910   0.0366   N.pl3     1 1      0.0000
     9 HN       4.9844   1.1823   0.1914   H         1 1      0.0000
    10 C        3.4208   2.6125   0.4514   C.3       1 1      0.0000
    11 HA       4.1648   3.3790   0.2217   H         1 1      0.0000
    12 HB       2.5020   2.8241  -0.0960   H         1 1      0.0000
    13 HC       3.2259   2.6030   1.5285   H         1 1      0.0000
    14 H12B     1.5937  -0.6389  -1.2546   H         1 1      0.0000
    15 O1       1.6453  -0.8285   1.3827   O.3       1 1      0.0000
    16 H11      1.2642   1.2405   1.1538   H         1 1      0.0000
    17 OH1      1.1463  -0.9839   2.2281   H         1 1      0.0000
    18 C10     -0.4197   0.1520   0.3696   C.ar      1 1      0.0000
    19 C5      -1.1299   1.1839  -0.2666   C.ar      1 1      0.0000
    20 C9      -1.0900  -1.0074   0.7864   C.ar      1 1      0.0000
    21 C6      -2.5015   1.0636  -0.4794   C.ar      1 1      0.0000
    22 H5      -0.6092   2.0712  -0.6125   H         1 1      0.0000
    23 C8      -2.4662  -1.1330   0.5877   C.ar      1 1      0.0000
    24 H8      -0.5445  -1.8187   1.2601   H         1 1      0.0000
    25 C7      -3.1481  -0.0930  -0.0408   C.ar      1 1      0.0000
    26 H6      -3.0687   1.8428  -0.9722   H         1 1      0.0000
    27 H7      -3.0046  -2.0180   0.9017   H         1 1      0.0000
    28 NO      -4.6011  -0.2208  -0.2540   N.pl3     1 1      0.0000
    29 ON2     -5.1741  -1.2953   0.1586   O.2       1 1      0.0000
    30 ON1     -5.2087   0.7483  -0.8412   O.2       1 1      0.0000
    31 C15      3.3926  -2.3183  -0.5711   C.3       1 1      0.0000
    32 H15C     2.4790  -2.4121  -1.1714   H         1 1      0.0000
    33 H15A     4.0515  -3.1374  -0.8744   H         1 1      0.0000
    34 H15B     3.1606  -2.4761   0.4898   H         1 1      0.0000
@<TRIPOS>BOND
     1     1     2    1
     2     1    15    1
     3     1    16    1
     4     1    18    1
     5     2     3    1
     6     2     4    1
     7     2    14    1
     8     4     5    1
     9     4     8    2
    10     5     6    1
    11     5     7    1
    12     5    31    1
    13     8     9    1
    14     8    10    1
    15    10    11    1
    16    10    12    1
    17    10    13    1
    18    15    17    1
    19    18    19   ar
    20    18    20   ar
    21    19    21   ar
    22    19    22    1
    23    20    23   ar
    24    20    24    1
    25    21    25   ar
    26    21    26    1
    27    23    25   ar
    28    23    27    1
    29    25    28    1
    30    28    29   un
    31    28    30   un
    32    31    32    1
    33    31    33    1
    34    31    34    1
@<TRIPOS>SUBSTRUCTURE
     1 1           1 GROUP             0 ****  ****    0  
@<TRIPOS>MOLECULE
Molecule Name_00088
    34    34     1     0     0
SMALL
NO_CHARGES
****
Generated from the CSD

@<TRIPOS>ATOM
     1 C11      1.1701   0.5981   1.6020   C.3       1 1      0.0000
     2 C12      2.2929  -0.2232   0.8914   C.3       1 1      0.0000
     3 H12A     2.0466  -1.2884   0.9507   H         1 1      0.0000
     4 C13      2.4819   0.2363  -0.5297   C.2       1 1      0.0000
     5 C14      1.6144  -0.3805  -1.5882   C.3       1 1      0.0000
     6 H14A     1.7057   0.2473  -2.4880   H         1 1      0.0000
     7 H14B     0.5843  -0.2408  -1.2266   H         1 1      0.0000
     8 N        3.3667   1.1382  -0.8599   N.pl3     1 1      0.0000
     9 HN       3.4368   1.3718  -1.8556   H         1 1      0.0000
    10 C        4.3229   1.8706   0.0217   C.3       1 1      0.0000
    11 HA       4.4291   2.8865  -0.3660   H         1 1      0.0000
    12 HB       3.9409   1.9103   1.0421   H         1 1      0.0000
    13 HC       5.2949   1.3675   0.0009   H         1 1      0.0000
    14 H12B     3.2254  -0.0597   1.4369   H         1 1      0.0000
    15 O1       1.2694   0.1593   3.0135   O.3       1 1      0.0000
    16 H11      1.3938   1.6695   1.5361   H         1 1      0.0000
    17 OH1      0.5305   0.5390   3.5592   H         1 1      0.0000
    18 C10     -0.1819   0.3104   0.9830   C.ar      1 1      0.0000
    19 C5      -0.6253  -1.0168   0.8561   C.ar      1 1      0.0000
    20 C9      -0.9828   1.3647   0.5206   C.ar      1 1      0.0000
    21 C6      -1.8567  -1.2913   0.2651   C.ar      1 1      0.0000
    22 H5      -0.0187  -1.8328   1.2358   H         1 1      0.0000
    23 C8      -2.2135   1.0996  -0.0831   C.ar      1 1      0.0000
    24 H8      -0.6566   2.3948   0.6338   H         1 1      0.0000
    25 C7      -2.6277  -0.2255  -0.2016   C.ar      1 1      0.0000
    26 H6      -2.2218  -2.3050   0.1613   H         1 1      0.0000
    27 H7      -2.8479   1.8970  -0.4482   H         1 1      0.0000
    28 NO      -3.9267  -0.5111  -0.8373   N.pl3     1 1      0.0000
    29 ON2     -4.8151  -1.1205  -0.1356   O.2       1 1      0.0000
    30 ON1     -4.0936  -0.1356  -2.0556   O.2       1 1      0.0000
    31 C15      1.8865  -1.8541  -1.9308   C.3       1 1      0.0000
    32 H15C     1.7162  -2.5142  -1.0711   H         1 1      0.0000
    33 H15A     1.1911  -2.1733  -2.7128   H         1 1      0.0000
    34 H15B     2.8985  -2.0087  -2.3260   H         1 1      0.0000
@<TRIPOS>BOND
     1     1     2    1
     2     1    15    1
     3     1    16    1
     4     1    18    1
     5     2     3    1
     6     2     4    1
     7     2    14    1
     8     4     5    1
     9     4     8    2
    10     5     6    1
    11     5     7    1
    12     5    31    1
    13     8     9    1
    14     8    10    1
    15    10    11    1
    16    10    12    1
    17    10    13    1
    18    15    17    1
    19    18    19   ar
    20    18    20   ar
    21    19    21   ar
    22    19    22    1
    23    20    23   ar
    24    20    24    1
    25    21    25   ar
    26    21    26    1
    27    23    25   ar
    28    23    27    1
    29    25    28    1
    30    28    29   un
    31    28    30   un
    32    31    32    1
    33    31    33    1
    34    31    34    1
@<TRIPOS>SUBSTRUCTURE
     1 1           1 GROUP             0 ****  ****    0  
@<TRIPOS>MOLECULE
Molecule Name_00089
    34    34     1     0     0
SMALL
NO_CHARGES
****
Generated from the CSD

@<TRIPOS>ATOM
     1 C11      1.2300  -0.3150   1.6555   C.3       1 1      0.0000
     2 C12      2.2403  -0.8961   0.6153   C.3       1 1      0.0000
     3 H12A     1.8730  -1.8665   0.2660   H         1 1      0.0000
     4 C13      2.4620   0.0678  -0.5197   C.2       1 1      0.0000
     5 C14      3.3760   1.2344  -0.2815   C.3       1 1      0.0000
     6 H14A     3.0271   1.7375   0.6336   H         1 1      0.0000
     7 H14B     3.1663   1.9314  -1.1071   H         1 1      0.0000
     8 N        1.8878  -0.0800  -1.6833   N.pl3     1 1      0.0000
     9 HN       2.0830   0.6386  -2.3877   H         1 1      0.0000
    10 C        0.9521  -1.1538  -2.1298   C.3       1 1      0.0000
    11 HA       1.1783  -1.3862  -3.1731   H         1 1      0.0000
    12 HB       1.0868  -2.0487  -1.5219   H         1 1      0.0000
    13 HC      -0.0786  -0.7939  -2.0503   H         1 1      0.0000
    14 H12B     3.1928  -1.0575   1.1258   H         1 1      0.0000
    15 O1       1.2460  -1.3205   2.7434   O.3       1 1      0.0000
    16 H11      1.5998   0.6434   2.0388   H         1 1      0.0000
    17 OH1      0.5580  -1.1154   3.4306   H         1 1      0.0000
    18 C10     -0.1389  -0.1328   1.0336   C.ar      1 1      0.0000
    19 C5      -0.7688  -1.2163   0.3985   C.ar      1 1      0.0000
    20 C9      -0.7696   1.1191   1.0752   C.ar      1 1      0.0000
    21 C6      -2.0169  -1.0505  -0.1978   C.ar      1 1      0.0000
    22 H5      -0.2941  -2.1923   0.3868   H         1 1      0.0000
    23 C8      -2.0155   1.2985   0.4710   C.ar      1 1      0.0000
    24 H8      -0.2988   1.9566   1.5824   H         1 1      0.0000
    25 C7      -2.6164   0.2093  -0.1569   C.ar      1 1      0.0000
    26 H6      -2.5240  -1.8716  -0.6881   H         1 1      0.0000
    27 H7      -2.5206   2.2556   0.4897   H         1 1      0.0000
    28 NO      -3.9322   0.3929  -0.7955   N.pl3     1 1      0.0000
    29 ON2     -4.0231   0.1588  -2.0565   O.2       1 1      0.0000
    30 ON1     -4.9101   0.7775  -0.0546   O.2       1 1      0.0000
    31 C15      4.8787   0.9251  -0.1854   C.3       1 1      0.0000
    32 H15C     5.2720   0.5033  -1.1187   H         1 1      0.0000
    33 H15A     5.4245   1.8567  -0.0087   H         1 1      0.0000
    34 H15B     5.1127   0.2582   0.6541   H         1 1      0.0000
@<TRIPOS>BOND
     1     1     2    1
     2     1    15    1
     3     1    16    1
     4     1    18    1
     5     2     3    1
     6     2     4    1
     7     2    14    1
     8     4     5    1
     9     4     8    2
    10     5     6    1
    11     5     7    1
    12     5    31    1
    13     8     9    1
    14     8    10    1
    15    10    11    1
    16    10    12    1
    17    10    13    1
    18    15    17    1
    19    18    19   ar
    20    18    20   ar
    21    19    21   ar
    22    19    22    1
    23    20    23   ar
    24    20    24    1
    25    21    25   ar
    26    21    26    1
    27    23    25   ar
    28    23    27    1
    29    25    28    1
    30    28    29   un
    31    28    30   un
    32    31    32    1
    33    31    33    1
    34    31    34    1
@<TRIPOS>SUBSTRUCTURE
     1 1           1 GROUP             0 ****  ****    0  
@<TRIPOS>MOLECULE
Molecule Name_00090
    34    34     1     0     0
SMALL
NO_CHARGES
****
Generated from the CSD

@<TRIPOS>ATOM
     1 C11      1.4050  -0.9221  -1.3235   C.3       1 1      0.0000
     2 C12      2.3842   0.2650  -1.0545   C.3       1 1      0.0000
     3 H12A     2.0132   1.1564  -1.5708   H         1 1      0.0000
     4 C13      2.5594   0.4974   0.4225   C.2       1 1      0.0000
     5 C14      3.4792  -0.4210   1.1733   C.3       1 1      0.0000
     6 H14A     3.7168   0.0698   2.1298   H         1 1      0.0000
     7 H14B     4.4149  -0.4202   0.5937   H         1 1      0.0000
     8 N        1.9408   1.4571   1.0564   N.pl3     1 1      0.0000
     9 HN       2.1068   1.5241   2.0657   H         1 1      0.0000
    10 C        0.9910   2.4713   0.5114   C.3       1 1      0.0000
    11 HA       1.1857   3.4211   1.0153   H         1 1      0.0000
    12 HB       1.1427   2.5926  -0.5613   H         1 1      0.0000
    13 HC      -0.0365   2.1533   0.7147   H         1 1      0.0000
    14 H12B     3.3547   0.0038  -1.4832   H         1 1      0.0000
    15 O1       1.4621  -1.0834  -2.7950   O.3       1 1      0.0000
    16 H11      1.7816  -1.8322  -0.8416   H         1 1      0.0000
    17 OH1      0.7956  -1.7509  -3.1081   H         1 1      0.0000
    18 C10      0.0156  -0.6008  -0.8134   C.ar      1 1      0.0000
    19 C5      -0.6303   0.5736  -1.2348   C.ar      1 1      0.0000
    20 C9      -0.6187  -1.4640   0.0918   C.ar      1 1      0.0000
    21 C6      -1.8981   0.8890  -0.7509   C.ar      1 1      0.0000
    22 H5      -0.1521   1.2305  -1.9544   H         1 1      0.0000
    23 C8      -1.8846  -1.1515   0.5912   C.ar      1 1      0.0000
    24 H8      -0.1350  -2.3845   0.4065   H         1 1      0.0000
    25 C7      -2.5012   0.0218   0.1615   C.ar      1 1      0.0000
    26 H6      -2.4176   1.7851  -1.0652   H         1 1      0.0000
    27 H7      -2.3929  -1.8021   1.2912   H         1 1      0.0000
    28 NO      -3.8382   0.3561   0.6848   N.pl3     1 1      0.0000
    29 ON2     -3.9696   1.4614   1.3284   O.2       1 1      0.0000
    30 ON1     -4.7927  -0.4776   0.4682   O.2       1 1      0.0000
    31 C15      2.9777  -1.8539   1.4143   C.3       1 1      0.0000
    32 H15C     3.0782  -2.4805   0.5193   H         1 1      0.0000
    33 H15A     3.5890  -2.3201   2.1928   H         1 1      0.0000
    34 H15B     1.9405  -1.8764   1.7718   H         1 1      0.0000
@<TRIPOS>BOND
     1     1     2    1
     2     1    15    1
     3     1    16    1
     4     1    18    1
     5     2     3    1
     6     2     4    1
     7     2    14    1
     8     4     5    1
     9     4     8    2
    10     5     6    1
    11     5     7    1
    12     5    31    1
    13     8     9    1
    14     8    10    1
    15    10    11    1
    16    10    12    1
    17    10    13    1
    18    15    17    1
    19    18    19   ar
    20    18    20   ar
    21    19    21   ar
    22    19    22    1
    23    20    23   ar
    24    20    24    1
    25    21    25   ar
    26    21    26    1
    27    23    25   ar
    28    23    27    1
    29    25    28    1
    30    28    29   un
    31    28    30   un
    32    31    32    1
    33    31    33    1
    34    31    34    1
@<TRIPOS>SUBSTRUCTURE
     1 1           1 GROUP             0 ****  ****    0  
@<TRIPOS>MOLECULE
Molecule Name_00091
    34    34     1     0     0
SMALL
NO_CHARGES
****
Generated from the CSD

@<TRIPOS>ATOM
     1 C11      1.0679   0.2482   0.5488   C.3       1 1      0.0000
     2 C12      1.8152  -0.2894  -0.7132   C.3       1 1      0.0000
     3 H12A     1.3637   0.1502  -1.6086   H         1 1      0.0000
     4 C13      3.2919  -0.0092  -0.6275   C.2       1 1      0.0000
     5 C14      4.2198  -1.1780  -0.4650   C.3       1 1      0.0000
     6 H14A     5.2323  -0.8246  -0.7145   H         1 1      0.0000
     7 H14B     3.9382  -1.8765  -1.2676   H         1 1      0.0000
     8 N        3.7773   1.2017  -0.6861   N.pl3     1 1      0.0000
     9 HN       4.7943   1.2950  -0.5979   H         1 1      0.0000
    10 C        3.0434   2.4921  -0.8415   C.3       1 1      0.0000
    11 HA       3.6558   3.1569  -1.4552   H         1 1      0.0000
    12 HB       2.0853   2.3246  -1.3341   H         1 1      0.0000
    13 HC       2.8885   2.9431   0.1438   H         1 1      0.0000
    14 H12B     1.6682  -1.3713  -0.7554   H         1 1      0.0000
    15 O1       1.5788  -0.6142   1.6397   O.3       1 1      0.0000
    16 H11      1.3586   1.2882   0.7391   H         1 1      0.0000
    17 OH1      1.0971  -0.4377   2.4909   H         1 1      0.0000
    18 C10     -0.4328   0.1528   0.3679   C.ar      1 1      0.0000
    19 C5      -1.0139  -1.0635  -0.0281   C.ar      1 1      0.0000
    20 C9      -1.2399   1.2805   0.5773   C.ar      1 1      0.0000
    21 C6      -2.3908  -1.1529  -0.2210   C.ar      1 1      0.0000
    22 H5      -0.3946  -1.9440  -0.1665   H         1 1      0.0000
    23 C8      -2.6193   1.2042   0.3761   C.ar      1 1      0.0000
    24 H8      -0.8009   2.2191   0.9038   H         1 1      0.0000
    25 C7      -3.1702  -0.0123  -0.0217   C.ar      1 1      0.0000
    26 H6      -2.8618  -2.0804  -0.5205   H         1 1      0.0000
    27 H7      -3.2618   2.0616   0.5307   H         1 1      0.0000
    28 NO      -4.6262  -0.0987  -0.2347   N.pl3     1 1      0.0000
    29 ON2     -5.0410  -0.4337  -1.4047   O.2       1 1      0.0000
    30 ON1     -5.3949   0.1675   0.7611   O.2       1 1      0.0000
    31 C15      4.2162  -1.8765   0.9043   C.3       1 1      0.0000
    32 H15C     3.2388  -2.3162   1.1389   H         1 1      0.0000
    33 H15A     4.9342  -2.7019   0.8860   H         1 1      0.0000
    34 H15B     4.5280  -1.2048   1.7141   H         1 1      0.0000
@<TRIPOS>BOND
     1     1     2    1
     2     1    15    1
     3     1    16    1
     4     1    18    1
     5     2     3    1
     6     2     4    1
     7     2    14    1
     8     4     5    1
     9     4     8    2
    10     5     6    1
    11     5     7    1
    12     5    31    1
    13     8     9    1
    14     8    10    1
    15    10    11    1
    16    10    12    1
    17    10    13    1
    18    15    17    1
    19    18    19   ar
    20    18    20   ar
    21    19    21   ar
    22    19    22    1
    23    20    23   ar
    24    20    24    1
    25    21    25   ar
    26    21    26    1
    27    23    25   ar
    28    23    27    1
    29    25    28    1
    30    28    29   un
    31    28    30   un
    32    31    32    1
    33    31    33    1
    34    31    34    1
@<TRIPOS>SUBSTRUCTURE
     1 1           1 GROUP             0 ****  ****    0  
@<TRIPOS>MOLECULE
Molecule Name_00092
    34    34     1     0     0
SMALL
NO_CHARGES
****
Generated from the CSD

@<TRIPOS>ATOM
     1 C11      0.9399  -0.2105   0.7390   C.3       1 1      0.0000
     2 C12      1.7718  -0.1277  -0.5805   C.3       1 1      0.0000
     3 H12A     1.3411   0.6454  -1.2251   H         1 1      0.0000
     4 C13      3.2267   0.1248  -0.2875   C.2       1 1      0.0000
     5 C14      3.9451  -0.8540   0.5952   C.3       1 1      0.0000
     6 H14A     3.4416  -1.8260   0.4777   H         1 1      0.0000
     7 H14B     3.7258  -0.5232   1.6218   H         1 1      0.0000
     8 N        3.8672   1.1558  -0.7694   N.pl3     1 1      0.0000
     9 HN       4.8506   1.2553  -0.4977   H         1 1      0.0000
    10 C        3.3517   2.2408  -1.6554   C.3       1 1      0.0000
    11 HA       4.1599   2.5412  -2.3264   H         1 1      0.0000
    12 HB       2.5080   1.8791  -2.2436   H         1 1      0.0000
    13 HC       3.0474   3.0960  -1.0435   H         1 1      0.0000
    14 H12B     1.6820  -1.0874  -1.0952   H         1 1      0.0000
    15 O1       1.3414  -1.5160   1.3129   O.3       1 1      0.0000
    16 H11      1.2396   0.5952   1.4196   H         1 1      0.0000
    17 OH1      0.7981  -1.7366   2.1153   H         1 1      0.0000
    18 C10     -0.5436  -0.1196   0.4474   C.ar      1 1      0.0000
    19 C5      -1.2124   1.1068   0.5976   C.ar      1 1      0.0000
    20 C9      -1.2529  -1.2608   0.0455   C.ar      1 1      0.0000
    21 C6      -2.5817   1.1931   0.3555   C.ar      1 1      0.0000
    22 H5      -0.6612   1.9968   0.8842   H         1 1      0.0000
    23 C8      -2.6273  -1.1873  -0.1889   C.ar      1 1      0.0000
    24 H8      -0.7394  -2.2081  -0.0933   H         1 1      0.0000
    25 C7      -3.2678   0.0396  -0.0277   C.ar      1 1      0.0000
    26 H6      -3.1174   2.1279   0.4593   H         1 1      0.0000
    27 H7      -3.1955  -2.0550  -0.4989   H         1 1      0.0000
    28 NO      -4.7186   0.1231  -0.2748   N.pl3     1 1      0.0000
    29 ON2     -5.4705   0.5004   0.6975   O.2       1 1      0.0000
    30 ON1     -5.1463  -0.1878  -1.4468   O.2       1 1      0.0000
    31 C15      5.4588  -1.0021   0.3720   C.3       1 1      0.0000
    32 H15C     5.9969  -0.0666   0.5694   H         1 1      0.0000
    33 H15A     5.8525  -1.7434   1.0740   H         1 1      0.0000
    34 H15B     5.6966  -1.3646  -0.6360   H         1 1      0.0000
@<TRIPOS>BOND
     1     1     2    1
     2     1    15    1
     3     1    16    1
     4     1    18    1
     5     2     3    1
     6     2     4    1
     7     2    14    1
     8     4     5    1
     9     4     8    2
    10     5     6    1
    11     5     7    1
    12     5    31    1
    13     8     9    1
    14     8    10    1
    15    10    11    1
    16    10    12    1
    17    10    13    1
    18    15    17    1
    19    18    19   ar
    20    18    20   ar
    21    19    21   ar
    22    19    22    1
    23    20    23   ar
    24    20    24    1
    25    21    25   ar
    26    21    26    1
    27    23    25   ar
    28    23    27    1
    29    25    28    1
    30    28    29   un
    31    28    30   un
    32    31    32    1
    33    31    33    1
    34    31    34    1
@<TRIPOS>SUBSTRUCTURE
     1 1           1 GROUP             0 ****  ****    0  
@<TRIPOS>MOLECULE
Molecule Name_00093
    34    34     1     0     0
SMALL
NO_CHARGES
****
Generated from the CSD

@<TRIPOS>ATOM
     1 C11      1.1778   0.5674   1.5745   C.3       1 1      0.0000
     2 C12      2.2935  -0.2973   0.9055   C.3       1 1      0.0000
     3 H12A     2.0472  -1.3565   1.0323   H         1 1      0.0000
     4 C13      2.4700   0.0740  -0.5427   C.2       1 1      0.0000
     5 C14      2.0729  -0.9361  -1.5797   C.3       1 1      0.0000
     6 H14A     1.9917  -0.4010  -2.5385   H         1 1      0.0000
     7 H14B     1.0468  -1.2296  -1.3105   H         1 1      0.0000
     8 N        2.9537   1.2290  -0.9134   N.pl3     1 1      0.0000
     9 HN       3.0564   1.3832  -1.9215   H         1 1      0.0000
    10 C        3.4083   2.3652  -0.0587   C.3       1 1      0.0000
    11 HA       2.7536   3.2177  -0.2542   H         1 1      0.0000
    12 HB       3.3448   2.0938   0.9953   H         1 1      0.0000
    13 HC       4.4384   2.6274  -0.3205   H         1 1      0.0000
    14 H12B     3.2311  -0.1017   1.4316   H         1 1      0.0000
    15 O1       1.2439   0.1653   2.9988   O.3       1 1      0.0000
    16 H11      1.4263   1.6315   1.4837   H         1 1      0.0000
    17 OH1      0.5048   0.5757   3.5213   H         1 1      0.0000
    18 C10     -0.1699   0.2925   0.9404   C.ar      1 1      0.0000
    19 C5      -0.4481   0.7756  -0.3492   C.ar      1 1      0.0000
    20 C9      -1.1455  -0.4274   1.6454   C.ar      1 1      0.0000
    21 C6      -1.6942   0.5485  -0.9295   C.ar      1 1      0.0000
    22 H5       0.3136   1.3113  -0.9067   H         1 1      0.0000
    23 C8      -2.4011  -0.6508   1.0771   C.ar      1 1      0.0000
    24 H8      -0.9312  -0.8224   2.6345   H         1 1      0.0000
    25 C7      -2.6535  -0.1566  -0.2010   C.ar      1 1      0.0000
    26 H6      -1.9297   0.9062  -1.9237   H         1 1      0.0000
    27 H7      -3.1697  -1.2028   1.6027   H         1 1      0.0000
    28 NO      -3.9771  -0.3905  -0.8061   N.pl3     1 1      0.0000
    29 ON2     -4.9884  -0.4798  -0.0171   O.2       1 1      0.0000
    30 ON1     -4.0418  -0.4929  -2.0861   O.2       1 1      0.0000
    31 C15      2.9812  -2.1676  -1.7265   C.3       1 1      0.0000
    32 H15C     3.0097  -2.7690  -0.8094   H         1 1      0.0000
    33 H15A     2.5809  -2.8148  -2.5127   H         1 1      0.0000
    34 H15B     4.0010  -1.8978  -2.0286   H         1 1      0.0000
@<TRIPOS>BOND
     1     1     2    1
     2     1    15    1
     3     1    16    1
     4     1    18    1
     5     2     3    1
     6     2     4    1
     7     2    14    1
     8     4     5    1
     9     4     8    2
    10     5     6    1
    11     5     7    1
    12     5    31    1
    13     8     9    1
    14     8    10    1
    15    10    11    1
    16    10    12    1
    17    10    13    1
    18    15    17    1
    19    18    19   ar
    20    18    20   ar
    21    19    21   ar
    22    19    22    1
    23    20    23   ar
    24    20    24    1
    25    21    25   ar
    26    21    26    1
    27    23    25   ar
    28    23    27    1
    29    25    28    1
    30    28    29   un
    31    28    30   un
    32    31    32    1
    33    31    33    1
    34    31    34    1
@<TRIPOS>SUBSTRUCTURE
     1 1           1 GROUP             0 ****  ****    0  
@<TRIPOS>MOLECULE
Molecule Name_00094
    34    34     1     0     0
SMALL
NO_CHARGES
****
Generated from the CSD

@<TRIPOS>ATOM
     1 C11      1.2047  -1.1461   1.2349   C.3       1 1      0.0000
     2 C12      2.2697  -1.0527   0.0959   C.3       1 1      0.0000
     3 H12A     1.9481  -1.6767  -0.7443   H         1 1      0.0000
     4 C13      2.4976   0.3775  -0.3153   C.2       1 1      0.0000
     5 C14      3.4131   1.2137   0.5308   C.3       1 1      0.0000
     6 H14A     3.0618   1.1274   1.5707   H         1 1      0.0000
     7 H14B     3.2079   2.2520   0.2287   H         1 1      0.0000
     8 N        1.9275   0.9007  -1.3673   N.pl3     1 1      0.0000
     9 HN       2.1268   1.8884  -1.5557   H         1 1      0.0000
    10 C        0.9914   0.2572  -2.3354   C.3       1 1      0.0000
    11 HA       1.2012   0.6625  -3.3281   H         1 1      0.0000
    12 HB       1.1422  -0.8225  -2.3457   H         1 1      0.0000
    13 HC      -0.0402   0.4925  -2.0547   H         1 1      0.0000
    14 H12B     3.2089  -1.4582   0.4798   H         1 1      0.0000
    15 O1       1.2177  -2.5829   1.5957   O.3       1 1      0.0000
    16 H11      1.5278  -0.5503   2.0969   H         1 1      0.0000
    17 OH1      0.4996  -2.7943   2.2495   H         1 1      0.0000
    18 C10     -0.1473  -0.6666   0.7492   C.ar      1 1      0.0000
    19 C5      -0.3717   0.7054   0.5461   C.ar      1 1      0.0000
    20 C9      -1.1797  -1.5877   0.5195   C.ar      1 1      0.0000
    21 C6      -1.6201   1.1569   0.1235   C.ar      1 1      0.0000
    22 H5       0.4328   1.4178   0.6990   H         1 1      0.0000
    23 C8      -2.4376  -1.1446   0.1064   C.ar      1 1      0.0000
    24 H8      -1.0083  -2.6521   0.6540   H         1 1      0.0000
    25 C7      -2.6356   0.2217  -0.0825   C.ar      1 1      0.0000
    26 H6      -1.8151   2.2082  -0.0449   H         1 1      0.0000
    27 H7      -3.2494  -1.8369  -0.0761   H         1 1      0.0000
    28 NO      -3.9615   0.6950  -0.5196   N.pl3     1 1      0.0000
    29 ON2     -4.5861   1.5166   0.2472   O.2       1 1      0.0000
    30 ON1     -4.4153   0.2572  -1.6400   O.2       1 1      0.0000
    31 C15      4.9148   0.8973   0.4426   C.3       1 1      0.0000
    32 H15C     5.3107   1.0612  -0.5674   H         1 1      0.0000
    33 H15A     5.4618   1.5733   1.1065   H         1 1      0.0000
    34 H15B     5.1442  -0.1237   0.7729   H         1 1      0.0000
@<TRIPOS>BOND
     1     1     2    1
     2     1    15    1
     3     1    16    1
     4     1    18    1
     5     2     3    1
     6     2     4    1
     7     2    14    1
     8     4     5    1
     9     4     8    2
    10     5     6    1
    11     5     7    1
    12     5    31    1
    13     8     9    1
    14     8    10    1
    15    10    11    1
    16    10    12    1
    17    10    13    1
    18    15    17    1
    19    18    19   ar
    20    18    20   ar
    21    19    21   ar
    22    19    22    1
    23    20    23   ar
    24    20    24    1
    25    21    25   ar
    26    21    26    1
    27    23    25   ar
    28    23    27    1
    29    25    28    1
    30    28    29   un
    31    28    30   un
    32    31    32    1
    33    31    33    1
    34    31    34    1
@<TRIPOS>SUBSTRUCTURE
     1 1           1 GROUP             0 ****  ****    0  
@<TRIPOS>MOLECULE
Molecule Name_00095
    34    34     1     0     0
SMALL
NO_CHARGES
****
Generated from the CSD

@<TRIPOS>ATOM
     1 C11      1.3724  -1.4076   0.7800   C.3       1 1      0.0000
     2 C12      2.3797  -1.0592  -0.3620   C.3       1 1      0.0000
     3 H12A     2.0126  -1.4836  -1.3022   H         1 1      0.0000
     4 C13      2.5957   0.4276  -0.4576   C.2       1 1      0.0000
     5 C14      3.5606   1.0598   0.5029   C.3       1 1      0.0000
     6 H14A     3.8088   2.0556   0.1040   H         1 1      0.0000
     7 H14B     4.4805   0.4620   0.4145   H         1 1      0.0000
     8 N        1.9745   1.1683  -1.3356   N.pl3     1 1      0.0000
     9 HN       2.1705   2.1741  -1.3108   H         1 1      0.0000
    10 C        0.9838   0.7509  -2.3711   C.3       1 1      0.0000
    11 HA       1.1486   1.3620  -3.2616   H         1 1      0.0000
    12 HB       1.1214  -0.3009  -2.6230   H         1 1      0.0000
    13 HC      -0.0297   0.9201  -1.9937   H         1 1      0.0000
    14 H12B     3.3344  -1.5350  -0.1249   H         1 1      0.0000
    15 O1       1.3945  -2.8886   0.8130   O.3       1 1      0.0000
    16 H11      1.7419  -1.0157   1.7351   H         1 1      0.0000
    17 OH1      0.7087  -3.2430   1.4390   H         1 1      0.0000
    18 C10      0.0008  -0.8393   0.4808   C.ar      1 1      0.0000
    19 C5      -0.2250   0.5424   0.5980   C.ar      1 1      0.0000
    20 C9      -1.0474  -1.6919   0.1048   C.ar      1 1      0.0000
    21 C6      -1.4902   1.0699   0.3488   C.ar      1 1      0.0000
    22 H5       0.5905   1.2073   0.8644   H         1 1      0.0000
    23 C8      -2.3215  -1.1747  -0.1364   C.ar      1 1      0.0000
    24 H8      -0.8760  -2.7588  -0.0084   H         1 1      0.0000
    25 C7      -2.5204   0.1985  -0.0081   C.ar      1 1      0.0000
    26 H6      -1.6868   2.1315   0.4273   H         1 1      0.0000
    27 H7      -3.1457  -1.8135  -0.4268   H         1 1      0.0000
    28 NO      -3.8635   0.7501  -0.2626   N.pl3     1 1      0.0000
    29 ON2     -4.4440   1.3784   0.6973   O.2       1 1      0.0000
    30 ON1     -4.3753   0.5689  -1.4281   O.2       1 1      0.0000
    31 C15      3.1066   1.1652   1.9677   C.3       1 1      0.0000
    32 H15C     3.1248   0.1924   2.4747   H         1 1      0.0000
    33 H15A     3.8004   1.8139   2.5108   H         1 1      0.0000
    34 H15B     2.1115   1.6178   2.0627   H         1 1      0.0000
@<TRIPOS>BOND
     1     1     2    1
     2     1    15    1
     3     1    16    1
     4     1    18    1
     5     2     3    1
     6     2     4    1
     7     2    14    1
     8     4     5    1
     9     4     8    2
    10     5     6    1
    11     5     7    1
    12     5    31    1
    13     8     9    1
    14     8    10    1
    15    10    11    1
    16    10    12    1
    17    10    13    1
    18    15    17    1
    19    18    19   ar
    20    18    20   ar
    21    19    21   ar
    22    19    22    1
    23    20    23   ar
    24    20    24    1
    25    21    25   ar
    26    21    26    1
    27    23    25   ar
    28    23    27    1
    29    25    28    1
    30    28    29   un
    31    28    30   un
    32    31    32    1
    33    31    33    1
    34    31    34    1
@<TRIPOS>SUBSTRUCTURE
     1 1           1 GROUP             0 ****  ****    0  
@<TRIPOS>MOLECULE
Molecule Name_00096
    34    34     1     0     0
SMALL
NO_CHARGES
****
Generated from the CSD

@<TRIPOS>ATOM
     1 C11      1.1023  -0.3975   0.5872   C.3       1 1      0.0000
     2 C12      1.8478  -0.2851  -0.7809   C.3       1 1      0.0000
     3 H12A     1.2662   0.3555  -1.4517   H         1 1      0.0000
     4 C13      3.2529   0.2210  -0.5911   C.2       1 1      0.0000
     5 C14      4.3119  -0.7731  -0.2125   C.3       1 1      0.0000
     6 H14A     5.2848  -0.3172  -0.4529   H         1 1      0.0000
     7 H14B     4.1856  -1.6051  -0.9219   H         1 1      0.0000
     8 N        3.5678   1.4795  -0.7411   N.pl3     1 1      0.0000
     9 HN       4.5463   1.7329  -0.5703   H         1 1      0.0000
    10 C        2.6819   2.6232  -1.1085   C.3       1 1      0.0000
    11 HA       3.2617   3.3151  -1.7239   H         1 1      0.0000
    12 HB       1.8217   2.2673  -1.6758   H         1 1      0.0000
    13 HC       2.3503   3.1331  -0.1983   H         1 1      0.0000
    14 H12B     1.8944  -1.2840  -1.2214   H         1 1      0.0000
    15 O1       1.4998  -1.7361   1.0821   O.3       1 1      0.0000
    16 H11      1.4712   0.3710   1.2768   H         1 1      0.0000
    17 OH1      1.0038  -1.9734   1.9101   H         1 1      0.0000
    18 C10     -0.3935  -0.2524   0.3994   C.ar      1 1      0.0000
    19 C5      -1.0589  -1.0416  -0.5538   C.ar      1 1      0.0000
    20 C9      -1.1113   0.6803   1.1621   C.ar      1 1      0.0000
    21 C6      -2.4305  -0.8964  -0.7503   C.ar      1 1      0.0000
    22 H5      -0.5102  -1.7816  -1.1276   H         1 1      0.0000
    23 C8      -2.4841   0.8413   0.9652   C.ar      1 1      0.0000
    24 H8      -0.6080   1.2795   1.9157   H         1 1      0.0000
    25 C7      -3.1192   0.0501   0.0100   C.ar      1 1      0.0000
    26 H6      -2.9656  -1.4968  -1.4747   H         1 1      0.0000
    27 H7      -3.0583   1.5554   1.5414   H         1 1      0.0000
    28 NO      -4.5687   0.2152  -0.2014   N.pl3     1 1      0.0000
    29 ON2     -4.9669   0.5592  -1.3745   O.2       1 1      0.0000
    30 ON1     -5.3483   0.0073   0.7997   O.2       1 1      0.0000
    31 C15      4.2982  -1.2763   1.2400   C.3       1 1      0.0000
    32 H15C     3.8442  -2.2714   1.3260   H         1 1      0.0000
    33 H15A     5.3288  -1.3710   1.5949   H         1 1      0.0000
    34 H15B     3.7941  -0.5756   1.9175   H         1 1      0.0000
@<TRIPOS>BOND
     1     1     2    1
     2     1    15    1
     3     1    16    1
     4     1    18    1
     5     2     3    1
     6     2     4    1
     7     2    14    1
     8     4     5    1
     9     4     8    2
    10     5     6    1
    11     5     7    1
    12     5    31    1
    13     8     9    1
    14     8    10    1
    15    10    11    1
    16    10    12    1
    17    10    13    1
    18    15    17    1
    19    18    19   ar
    20    18    20   ar
    21    19    21   ar
    22    19    22    1
    23    20    23   ar
    24    20    24    1
    25    21    25   ar
    26    21    26    1
    27    23    25   ar
    28    23    27    1
    29    25    28    1
    30    28    29   un
    31    28    30   un
    32    31    32    1
    33    31    33    1
    34    31    34    1
@<TRIPOS>SUBSTRUCTURE
     1 1           1 GROUP             0 ****  ****    0  
@<TRIPOS>MOLECULE
Molecule Name_00097
    34    34     1     0     0
SMALL
NO_CHARGES
****
Generated from the CSD

@<TRIPOS>ATOM
     1 C11      1.0651   0.0735   0.5688   C.3       1 1      0.0000
     2 C12      1.8349  -0.0484  -0.7850   C.3       1 1      0.0000
     3 H12A     1.3901   0.6401  -1.5108   H         1 1      0.0000
     4 C13      3.3070   0.2025  -0.5945   C.2       1 1      0.0000
     5 C14      4.2461  -0.9535  -0.7813   C.3       1 1      0.0000
     6 H14A     5.2576  -0.5339  -0.8950   H         1 1      0.0000
     7 H14B     3.9830  -1.3760  -1.7629   H         1 1      0.0000
     8 N        3.7792   1.3771  -0.2735   N.pl3     1 1      0.0000
     9 HN       4.7938   1.4461  -0.1449   H         1 1      0.0000
    10 C        3.0325   2.6482  -0.0398   C.3       1 1      0.0000
    11 HA       3.6451   3.4728  -0.4119   H         1 1      0.0000
    12 HB       2.0829   2.6321  -0.5752   H         1 1      0.0000
    13 HC       2.8596   2.7761   1.0335   H         1 1      0.0000
    14 H12B     1.7009  -1.0670  -1.1573   H         1 1      0.0000
    15 O1       1.5716  -1.0770   1.3529   O.3       1 1      0.0000
    16 H11      1.3413   1.0079   1.0716   H         1 1      0.0000
    17 OH1      1.0770  -1.1718   2.2097   H         1 1      0.0000
    18 C10     -0.4319   0.0272   0.3436   C.ar      1 1      0.0000
    19 C5      -1.0743   1.0918  -0.3107   C.ar      1 1      0.0000
    20 C9      -1.1791  -1.0672   0.8028   C.ar      1 1      0.0000
    21 C6      -2.4544   1.0684  -0.4996   C.ar      1 1      0.0000
    22 H5      -0.4951   1.9280  -0.6892   H         1 1      0.0000
    23 C8      -2.5640  -1.0951   0.6283   C.ar      1 1      0.0000
    24 H8      -0.6874  -1.9039   1.2910   H         1 1      0.0000
    25 C7      -3.1775  -0.0244  -0.0190   C.ar      1 1      0.0000
    26 H6      -2.9706   1.8742  -1.0055   H         1 1      0.0000
    27 H7      -3.1612  -1.9286   0.9752   H         1 1      0.0000
    28 NO      -4.6394  -0.0492  -0.2068   N.pl3     1 1      0.0000
    29 ON2     -5.3262   0.9029   0.3175   O.2       1 1      0.0000
    30 ON1     -5.1410  -1.0217  -0.8818   O.2       1 1      0.0000
    31 C15      4.2328  -2.0364   0.3098   C.3       1 1      0.0000
    32 H15C     3.2576  -2.5335   0.3836   H         1 1      0.0000
    33 H15A     4.9605  -2.8118   0.0522   H         1 1      0.0000
    34 H15B     4.5263  -1.6414   1.2906   H         1 1      0.0000
@<TRIPOS>BOND
     1     1     2    1
     2     1    15    1
     3     1    16    1
     4     1    18    1
     5     2     3    1
     6     2     4    1
     7     2    14    1
     8     4     5    1
     9     4     8    2
    10     5     6    1
    11     5     7    1
    12     5    31    1
    13     8     9    1
    14     8    10    1
    15    10    11    1
    16    10    12    1
    17    10    13    1
    18    15    17    1
    19    18    19   ar
    20    18    20   ar
    21    19    21   ar
    22    19    22    1
    23    20    23   ar
    24    20    24    1
    25    21    25   ar
    26    21    26    1
    27    23    25   ar
    28    23    27    1
    29    25    28    1
    30    28    29   un
    31    28    30   un
    32    31    32    1
    33    31    33    1
    34    31    34    1
@<TRIPOS>SUBSTRUCTURE
     1 1           1 GROUP             0 ****  ****    0  
@<TRIPOS>MOLECULE
Molecule Name_00098
    34    34     1     0     0
SMALL
NO_CHARGES
****
Generated from the CSD

@<TRIPOS>ATOM
     1 C11      0.9451  -0.6962  -0.1058   C.3       1 1      0.0000
     2 C12      1.7198   0.6346   0.1565   C.3       1 1      0.0000
     3 H12A     1.3232   1.1049   1.0622   H         1 1      0.0000
     4 C13      3.2021   0.3883   0.2486   C.2       1 1      0.0000
     5 C14      3.6797  -0.6727   1.1970   C.3       1 1      0.0000
     6 H14A     3.1699  -1.6083   0.9195   H         1 1      0.0000
     7 H14B     3.2676  -0.3838   2.1757   H         1 1      0.0000
     8 N        4.0673   1.0633  -0.4594   N.pl3     1 1      0.0000
     9 HN       5.0568   0.8392  -0.3133   H         1 1      0.0000
    10 C        3.8133   2.1508  -1.4497   C.3       1 1      0.0000
    11 HA       4.6411   2.1581  -2.1627   H         1 1      0.0000
    12 HB       2.8792   1.9669  -1.9811   H         1 1      0.0000
    13 HC       3.7697   3.1131  -0.9298   H         1 1      0.0000
    14 H12B     1.5302   1.3054  -0.6850   H         1 1      0.0000
    15 O1       1.4329  -1.1164  -1.4401   O.3       1 1      0.0000
    16 H11      1.2308  -1.4470   0.6404   H         1 1      0.0000
    17 OH1      0.9329  -1.9091  -1.7707   H         1 1      0.0000
    18 C10     -0.5513  -0.4658  -0.0647   C.ar      1 1      0.0000
    19 C5      -1.0544   0.8203   0.1937   C.ar      1 1      0.0000
    20 C9      -1.4340  -1.5369  -0.2659   C.ar      1 1      0.0000
    21 C6      -2.4294   1.0357   0.2580   C.ar      1 1      0.0000
    22 H5      -0.3739   1.6557   0.3249   H         1 1      0.0000
    23 C8      -2.8133  -1.3338  -0.1926   C.ar      1 1      0.0000
    24 H8      -1.0534  -2.5302  -0.4869   H         1 1      0.0000
    25 C7      -3.2865  -0.0498   0.0702   C.ar      1 1      0.0000
    26 H6      -2.8404   2.0184   0.4502   H         1 1      0.0000
    27 H7      -3.5134  -2.1455  -0.3435   H         1 1      0.0000
    28 NO      -4.7419   0.1705   0.1478   N.pl3     1 1      0.0000
    29 ON2     -5.2202   0.6263   1.2508   O.2       1 1      0.0000
    30 ON1     -5.4468  -0.1076  -0.8909   O.2       1 1      0.0000
    31 C15      5.1991  -0.8921   1.2783   C.3       1 1      0.0000
    32 H15C     5.7246   0.0011   1.6386   H         1 1      0.0000
    33 H15A     5.4068  -1.6891   1.9985   H         1 1      0.0000
    34 H15B     5.6241  -1.2146   0.3194   H         1 1      0.0000
@<TRIPOS>BOND
     1     1     2    1
     2     1    15    1
     3     1    16    1
     4     1    18    1
     5     2     3    1
     6     2     4    1
     7     2    14    1
     8     4     5    1
     9     4     8    2
    10     5     6    1
    11     5     7    1
    12     5    31    1
    13     8     9    1
    14     8    10    1
    15    10    11    1
    16    10    12    1
    17    10    13    1
    18    15    17    1
    19    18    19   ar
    20    18    20   ar
    21    19    21   ar
    22    19    22    1
    23    20    23   ar
    24    20    24    1
    25    21    25   ar
    26    21    26    1
    27    23    25   ar
    28    23    27    1
    29    25    28    1
    30    28    29   un
    31    28    30   un
    32    31    32    1
    33    31    33    1
    34    31    34    1
@<TRIPOS>SUBSTRUCTURE
     1 1           1 GROUP             0 ****  ****    0  
@<TRIPOS>MOLECULE
Molecule Name_00099
    34    34     1     0     0
SMALL
NO_CHARGES
****
Generated from the CSD

@<TRIPOS>ATOM
     1 C11      0.9526  -0.6347   0.4099   C.3       1 1      0.0000
     2 C12      1.7444   0.2723  -0.5854   C.3       1 1      0.0000
     3 H12A     1.2978   1.2719  -0.5887   H         1 1      0.0000
     4 C13      3.2087   0.3072  -0.2374   C.2       1 1      0.0000
     5 C14      3.9164  -1.0029  -0.0475   C.3       1 1      0.0000
     6 H14A     3.6935  -1.6222  -0.9300   H         1 1      0.0000
     7 H14B     3.3995  -1.4841   0.7967   H         1 1      0.0000
     8 N        3.8661   1.4267  -0.0956   N.pl3     1 1      0.0000
     9 HN       4.8552   1.3504   0.1626   H         1 1      0.0000
    10 C        3.3636   2.8252  -0.2354   C.3       1 1      0.0000
    11 HA       4.1622   3.4285  -0.6735   H         1 1      0.0000
    12 HB       2.4912   2.8494  -0.8888   H         1 1      0.0000
    13 HC       3.1071   3.2197   0.7530   H         1 1      0.0000
    14 H12B     1.6347  -0.1516  -1.5865   H         1 1      0.0000
    15 O1       1.3835  -2.0029   0.0398   O.3       1 1      0.0000
    16 H11      1.2645  -0.4195   1.4389   H         1 1      0.0000
    17 OH1      0.8663  -2.6886   0.5397   H         1 1      0.0000
    18 C10     -0.5396  -0.4206   0.2637   C.ar      1 1      0.0000
    19 C5      -1.0281   0.4493  -0.7256   C.ar      1 1      0.0000
    20 C9      -1.4321  -1.0750   1.1252   C.ar      1 1      0.0000
    21 C6      -2.3979   0.6709  -0.8504   C.ar      1 1      0.0000
    22 H5      -0.3412   0.9374  -1.4097   H         1 1      0.0000
    23 C8      -2.8058  -0.8512   1.0156   C.ar      1 1      0.0000
    24 H8      -1.0639  -1.7652   1.8791   H         1 1      0.0000
    25 C7      -3.2641   0.0202   0.0296   C.ar      1 1      0.0000
    26 H6      -2.7980   1.3322  -1.6082   H         1 1      0.0000
    27 H7      -3.5133  -1.3443   1.6699   H         1 1      0.0000
    28 NO      -4.7137   0.2593  -0.0912   N.pl3     1 1      0.0000
    29 ON2     -5.1353   1.4653   0.0536   O.2       1 1      0.0000
    30 ON1     -5.4703  -0.7518  -0.3324   O.2       1 1      0.0000
    31 C15      5.4330  -0.9388   0.1952   C.3       1 1      0.0000
    32 H15C     5.6791  -0.4010   1.1193   H         1 1      0.0000
    33 H15A     5.8191  -1.9558   0.3128   H         1 1      0.0000
    34 H15B     5.9707  -0.4931  -0.6512   H         1 1      0.0000
@<TRIPOS>BOND
     1     1     2    1
     2     1    15    1
     3     1    16    1
     4     1    18    1
     5     2     3    1
     6     2     4    1
     7     2    14    1
     8     4     5    1
     9     4     8    2
    10     5     6    1
    11     5     7    1
    12     5    31    1
    13     8     9    1
    14     8    10    1
    15    10    11    1
    16    10    12    1
    17    10    13    1
    18    15    17    1
    19    18    19   ar
    20    18    20   ar
    21    19    21   ar
    22    19    22    1
    23    20    23   ar
    24    20    24    1
    25    21    25   ar
    26    21    26    1
    27    23    25   ar
    28    23    27    1
    29    25    28    1
    30    28    29   un
    31    28    30   un
    32    31    32    1
    33    31    33    1
    34    31    34    1
@<TRIPOS>SUBSTRUCTURE
     1 1           1 GROUP             0 ****  ****    0  
@<TRIPOS>MOLECULE
Molecule Name_00100
    34    34     1     0     0
SMALL
NO_CHARGES
****
Generated from the CSD

@<TRIPOS>ATOM
     1 C11      1.0336  -0.4304  -0.4270   C.3       1 1      0.0000
     2 C12      1.7865   0.1101   0.8305   C.3       1 1      0.0000
     3 H12A     1.5196  -0.5042   1.6966   H         1 1      0.0000
     4 C13      3.2733   0.1448   0.5971   C.2       1 1      0.0000
     5 C14      4.0437  -1.1295   0.7873   C.3       1 1      0.0000
     6 H14A     3.4350  -1.7827   1.4316   H         1 1      0.0000
     7 H14B     4.9194  -0.8436   1.3895   H         1 1      0.0000
     8 N        3.8992   1.2350   0.2434   N.pl3     1 1      0.0000
     9 HN       4.9154   1.1658   0.1280   H         1 1      0.0000
    10 C        3.3351   2.5959   0.0038   C.3       1 1      0.0000
    11 HA       3.8938   3.0533  -0.8162   H         1 1      0.0000
    12 HB       2.2822   2.5254  -0.2703   H         1 1      0.0000
    13 HC       3.4509   3.2018   0.9081   H         1 1      0.0000
    14 H12B     1.4398   1.1293   1.0175   H         1 1      0.0000
    15 O1       1.5566   0.4146  -1.5258   O.3       1 1      0.0000
    16 H11      1.3111  -1.4758  -0.6067   H         1 1      0.0000
    17 OH1      1.0735   0.2358  -2.3758   H         1 1      0.0000
    18 C10     -0.4659  -0.3139  -0.2487   C.ar      1 1      0.0000
    19 C5      -1.2857  -1.4339  -0.4672   C.ar      1 1      0.0000
    20 C9      -1.0379   0.9135   0.1162   C.ar      1 1      0.0000
    21 C6      -2.6681  -1.3287  -0.3297   C.ar      1 1      0.0000
    22 H5      -0.8436  -2.3910  -0.7252   H         1 1      0.0000
    23 C8      -2.4229   1.0322   0.2459   C.ar      1 1      0.0000
    24 H8      -0.4095   1.7789   0.3073   H         1 1      0.0000
    25 C7      -3.2140  -0.0922   0.0185   C.ar      1 1      0.0000
    26 H6      -3.3193  -2.1788  -0.4874   H         1 1      0.0000
    27 H7      -2.8866   1.9695   0.5256   H         1 1      0.0000
    28 NO      -4.6769   0.0273   0.1550   N.pl3     1 1      0.0000
    29 ON2     -5.2584  -0.7124   1.0313   O.2       1 1      0.0000
    30 ON1     -5.2845   0.8623  -0.6109   O.2       1 1      0.0000
    31 C15      4.4677  -1.8761  -0.4878   C.3       1 1      0.0000
    32 H15C     5.1484  -1.2785  -1.1068   H         1 1      0.0000
    33 H15A     5.0141  -2.7814  -0.2065   H         1 1      0.0000
    34 H15B     3.6063  -2.2003  -1.0852   H         1 1      0.0000
@<TRIPOS>BOND
     1     1     2    1
     2     1    15    1
     3     1    16    1
     4     1    18    1
     5     2     3    1
     6     2     4    1
     7     2    14    1
     8     4     5    1
     9     4     8    2
    10     5     6    1
    11     5     7    1
    12     5    31    1
    13     8     9    1
    14     8    10    1
    15    10    11    1
    16    10    12    1
    17    10    13    1
    18    15    17    1
    19    18    19   ar
    20    18    20   ar
    21    19    21   ar
    22    19    22    1
    23    20    23   ar
    24    20    24    1
    25    21    25   ar
    26    21    26    1
    27    23    25   ar
    28    23    27    1
    29    25    28    1
    30    28    29   un
    31    28    30   un
    32    31    32    1
    33    31    33    1
    34    31    34    1
@<TRIPOS>SUBSTRUCTURE
     1 1           1 GROUP             0 ****  ****    0  
@<TRIPOS>MOLECULE
Molecule Name_00101
    34    34     1     0     0
SMALL
NO_CHARGES
****
Generated from the CSD

@<TRIPOS>ATOM
     1 C11      1.0512  -0.4211   0.4646   C.3       1 1      0.0000
     2 C12      1.8130   0.0880  -0.8005   C.3       1 1      0.0000
     3 H12A     1.3481   1.0170  -1.1462   H         1 1      0.0000
     4 C13      3.2809   0.2614  -0.5145   C.2       1 1      0.0000
     5 C14      4.0515  -0.9391  -0.0473   C.3       1 1      0.0000
     6 H14A     5.0067  -0.9438  -0.5949   H         1 1      0.0000
     7 H14B     3.4841  -1.8037  -0.4239   H         1 1      0.0000
     8 N        3.8890   1.4083  -0.6562   N.pl3     1 1      0.0000
     9 HN       4.8855   1.4338  -0.4173   H         1 1      0.0000
    10 C        3.3203   2.7146  -1.1013   C.3       1 1      0.0000
    11 HA       4.0915   3.2434  -1.6665   H         1 1      0.0000
    12 HB       2.4519   2.5504  -1.7396   H         1 1      0.0000
    13 HC       3.0390   3.3063  -0.2244   H         1 1      0.0000
    14 H12B     1.6980  -0.6621  -1.5867   H         1 1      0.0000
    15 O1       1.4772  -1.8360   0.5717   O.3       1 1      0.0000
    16 H11      1.3894   0.1300   1.3501   H         1 1      0.0000
    17 OH1      0.9759  -2.3075   1.2888   H         1 1      0.0000
    18 C10     -0.4452  -0.2615   0.2932   C.ar      1 1      0.0000
    19 C5      -1.1004   0.8446   0.8600   C.ar      1 1      0.0000
    20 C9      -1.1790  -1.2246  -0.4144   C.ar      1 1      0.0000
    21 C6      -2.4802   0.9856   0.7282   C.ar      1 1      0.0000
    22 H5      -0.5314   1.6042   1.3866   H         1 1      0.0000
    23 C8      -2.5635  -1.0983  -0.5428   C.ar      1 1      0.0000
    24 H8      -0.6772  -2.0718  -0.8735   H         1 1      0.0000
    25 C7      -3.1899   0.0051   0.0332   C.ar      1 1      0.0000
    26 H6      -3.0061   1.8318   1.1514   H         1 1      0.0000
    27 H7      -3.1506  -1.8296  -1.0835   H         1 1      0.0000
    28 NO      -4.6514   0.1440  -0.1002   N.pl3     1 1      0.0000
    29 ON2     -5.1010   1.1903  -0.6970   O.2       1 1      0.0000
    30 ON1     -5.3896  -0.7880   0.3893   O.2       1 1      0.0000
    31 C15      4.2985  -1.0545   1.4655   C.3       1 1      0.0000
    32 H15C     3.3614  -1.1409   2.0295   H         1 1      0.0000
    33 H15A     4.8693  -1.9662   1.6657   H         1 1      0.0000
    34 H15B     4.8931  -0.2181   1.8543   H         1 1      0.0000
@<TRIPOS>BOND
     1     1     2    1
     2     1    15    1
     3     1    16    1
     4     1    18    1
     5     2     3    1
     6     2     4    1
     7     2    14    1
     8     4     5    1
     9     4     8    2
    10     5     6    1
    11     5     7    1
    12     5    31    1
    13     8     9    1
    14     8    10    1
    15    10    11    1
    16    10    12    1
    17    10    13    1
    18    15    17    1
    19    18    19   ar
    20    18    20   ar
    21    19    21   ar
    22    19    22    1
    23    20    23   ar
    24    20    24    1
    25    21    25   ar
    26    21    26    1
    27    23    25   ar
    28    23    27    1
    29    25    28    1
    30    28    29   un
    31    28    30   un
    32    31    32    1
    33    31    33    1
    34    31    34    1
@<TRIPOS>SUBSTRUCTURE
     1 1           1 GROUP             0 ****  ****    0  
@<TRIPOS>MOLECULE
Molecule Name_00102
    34    34     1     0     0
SMALL
NO_CHARGES
****
Generated from the CSD

@<TRIPOS>ATOM
     1 C11      1.0210  -0.7045  -0.3123   C.3       1 1      0.0000
     2 C12      1.8195   0.4784   0.3226   C.3       1 1      0.0000
     3 H12A     1.5922   0.5279   1.3924   H         1 1      0.0000
     4 C13      3.2955   0.3353   0.0631   C.2       1 1      0.0000
     5 C14      3.9501  -0.9646   0.4305   C.3       1 1      0.0000
     6 H14A     4.9253  -0.9917  -0.0797   H         1 1      0.0000
     7 H14B     3.3350  -1.7381  -0.0540   H         1 1      0.0000
     8 N        4.0086   1.2960  -0.4605   N.pl3     1 1      0.0000
     9 HN       5.0102   1.1133  -0.5802   H         1 1      0.0000
    10 C        3.5659   2.6542  -0.8930   C.3       1 1      0.0000
    11 HA       4.2435   2.9957  -1.6790   H         1 1      0.0000
    12 HB       2.5490   2.6130  -1.2840   H         1 1      0.0000
    13 HC       3.6166   3.3411  -0.0423   H         1 1      0.0000
    14 H12B     1.4730   1.4051  -0.1412   H         1 1      0.0000
    15 O1       1.4931  -0.7188  -1.7165   O.3       1 1      0.0000
    16 H11      1.2989  -1.6462   0.1759   H         1 1      0.0000
    17 OH1      0.9778  -1.3714  -2.2608   H         1 1      0.0000
    18 C10     -0.4710  -0.4755  -0.1884   C.ar      1 1      0.0000
    19 C5      -0.9511   0.6589   0.4874   C.ar      1 1      0.0000
    20 C9      -1.3727  -1.4025  -0.7311   C.ar      1 1      0.0000
    21 C6      -2.3220   0.8640   0.6275   C.ar      1 1      0.0000
    22 H5      -0.2558   1.3906   0.8864   H         1 1      0.0000
    23 C8      -2.7483  -1.2119  -0.5866   C.ar      1 1      0.0000
    24 H8      -1.0100  -2.2713  -1.2732   H         1 1      0.0000
    25 C7      -3.1984  -0.0815   0.0925   C.ar      1 1      0.0000
    26 H6      -2.7154   1.7330   1.1391   H         1 1      0.0000
    27 H7      -3.4628  -1.9144  -0.9962   H         1 1      0.0000
    28 NO      -4.6497   0.1251   0.2471   N.pl3     1 1      0.0000
    29 ON2     -5.3990  -0.9177   0.3121   O.2       1 1      0.0000
    30 ON1     -5.0803   1.3352   0.3061   O.2       1 1      0.0000
    31 C15      4.1202  -1.2513   1.9312   C.3       1 1      0.0000
    32 H15C     3.1552  -1.3178   2.4489   H         1 1      0.0000
    33 H15A     4.6097  -2.2219   2.0561   H         1 1      0.0000
    34 H15B     4.7596  -0.5094   2.4259   H         1 1      0.0000
@<TRIPOS>BOND
     1     1     2    1
     2     1    15    1
     3     1    16    1
     4     1    18    1
     5     2     3    1
     6     2     4    1
     7     2    14    1
     8     4     5    1
     9     4     8    2
    10     5     6    1
    11     5     7    1
    12     5    31    1
    13     8     9    1
    14     8    10    1
    15    10    11    1
    16    10    12    1
    17    10    13    1
    18    15    17    1
    19    18    19   ar
    20    18    20   ar
    21    19    21   ar
    22    19    22    1
    23    20    23   ar
    24    20    24    1
    25    21    25   ar
    26    21    26    1
    27    23    25   ar
    28    23    27    1
    29    25    28    1
    30    28    29   un
    31    28    30   un
    32    31    32    1
    33    31    33    1
    34    31    34    1
@<TRIPOS>SUBSTRUCTURE
     1 1           1 GROUP             0 ****  ****    0  
@<TRIPOS>MOLECULE
Molecule Name_00103
    34    34     1     0     0
SMALL
NO_CHARGES
****
Generated from the CSD

@<TRIPOS>ATOM
     1 C11      1.1016  -0.5229   0.4350   C.3       1 1      0.0000
     2 C12      1.8677  -0.0514  -0.8421   C.3       1 1      0.0000
     3 H12A     1.2948   0.7457  -1.3271   H         1 1      0.0000
     4 C13      3.2684   0.3837  -0.5026   C.2       1 1      0.0000
     5 C14      4.3241  -0.6771  -0.3861   C.3       1 1      0.0000
     6 H14A     5.2993  -0.1751  -0.4813   H         1 1      0.0000
     7 H14B     4.2108  -1.2899  -1.2933   H         1 1      0.0000
     8 N        3.5823   1.6361  -0.3071   N.pl3     1 1      0.0000
     9 HN       4.5574   1.8334  -0.0599   H         1 1      0.0000
    10 C        2.6992   2.8378  -0.3704   C.3       1 1      0.0000
    11 HA       3.2874   3.6684  -0.7676   H         1 1      0.0000
    12 HB       1.8502   2.6482  -1.0275   H         1 1      0.0000
    13 HC       2.3500   3.0857   0.6370   H         1 1      0.0000
    14 H12B     1.9236  -0.8970  -1.5319   H         1 1      0.0000
    15 O1       1.4949  -1.9456   0.5617   O.3       1 1      0.0000
    16 H11      1.4578   0.0337   1.3099   H         1 1      0.0000
    17 OH1      0.9869  -2.3940   1.2888   H         1 1      0.0000
    18 C10     -0.3916  -0.3307   0.2693   C.ar      1 1      0.0000
    19 C5      -0.9290   0.9665   0.2211   C.ar      1 1      0.0000
    20 C9      -1.2390  -1.4448   0.1823   C.ar      1 1      0.0000
    21 C6      -2.3040   1.1517   0.0941   C.ar      1 1      0.0000
    22 H5      -0.2731   1.8302   0.2630   H         1 1      0.0000
    23 C8      -2.6193  -1.2701   0.0659   C.ar      1 1      0.0000
    24 H8      -0.8295  -2.4509   0.1978   H         1 1      0.0000
    25 C7      -3.1275   0.0268   0.0257   C.ar      1 1      0.0000
    26 H6      -2.7406   2.1412   0.0493   H         1 1      0.0000
    27 H7      -3.2927  -2.1149  -0.0019   H         1 1      0.0000
    28 NO      -4.5840   0.2170  -0.0981   N.pl3     1 1      0.0000
    29 ON2     -5.0187   0.8572  -1.1249   O.2       1 1      0.0000
    30 ON1     -5.3329  -0.2668   0.8283   O.2       1 1      0.0000
    31 C15      4.2893  -1.5488   0.8796   C.3       1 1      0.0000
    32 H15C     3.8513  -2.5360   0.6868   H         1 1      0.0000
    33 H15A     5.3139  -1.7227   1.2217   H         1 1      0.0000
    34 H15B     3.7592  -1.0596   1.7065   H         1 1      0.0000
@<TRIPOS>BOND
     1     1     2    1
     2     1    15    1
     3     1    16    1
     4     1    18    1
     5     2     3    1
     6     2     4    1
     7     2    14    1
     8     4     5    1
     9     4     8    2
    10     5     6    1
    11     5     7    1
    12     5    31    1
    13     8     9    1
    14     8    10    1
    15    10    11    1
    16    10    12    1
    17    10    13    1
    18    15    17    1
    19    18    19   ar
    20    18    20   ar
    21    19    21   ar
    22    19    22    1
    23    20    23   ar
    24    20    24    1
    25    21    25   ar
    26    21    26    1
    27    23    25   ar
    28    23    27    1
    29    25    28    1
    30    28    29   un
    31    28    30   un
    32    31    32    1
    33    31    33    1
    34    31    34    1
@<TRIPOS>SUBSTRUCTURE
     1 1           1 GROUP             0 ****  ****    0  
@<TRIPOS>MOLECULE
Molecule Name_00104
    34    34     1     0     0
SMALL
NO_CHARGES
****
Generated from the CSD

@<TRIPOS>ATOM
     1 C11      1.1603   0.4232   1.7129   C.3       1 1      0.0000
     2 C12      2.2685  -0.4916   1.1003   C.3       1 1      0.0000
     3 H12A     1.9724  -1.5388   1.2203   H         1 1      0.0000
     4 C13      2.5271  -0.1374  -0.3398   C.2       1 1      0.0000
     5 C14      2.1362  -1.1367  -1.3895   C.3       1 1      0.0000
     6 H14A     1.0665  -1.3547  -1.2467   H         1 1      0.0000
     7 H14B     2.6709  -2.0588  -1.1154   H         1 1      0.0000
     8 N        3.0754   0.9941  -0.6928   N.pl3     1 1      0.0000
     9 HN       3.2310   1.1373  -1.6958   H         1 1      0.0000
    10 C        3.5375   2.1157   0.1768   C.3       1 1      0.0000
    11 HA       2.9486   3.0014  -0.0733   H         1 1      0.0000
    12 HB       3.3872   1.8656   1.2273   H         1 1      0.0000
    13 HC       4.5964   2.3137  -0.0172   H         1 1      0.0000
    14 H12B     3.1882  -0.3319   1.6684   H         1 1      0.0000
    15 O1       1.1437   0.0278   3.1406   O.3       1 1      0.0000
    16 H11      1.4572   1.4753   1.6289   H         1 1      0.0000
    17 OH1      0.3991   0.4721   3.6264   H         1 1      0.0000
    18 C10     -0.1670   0.2006   1.0182   C.ar      1 1      0.0000
    19 C5      -0.3649   0.6866  -0.2851   C.ar      1 1      0.0000
    20 C9      -1.2034  -0.4734   1.6804   C.ar      1 1      0.0000
    21 C6      -1.5913   0.5079  -0.9216   C.ar      1 1      0.0000
    22 H5       0.4436   1.1864  -0.8091   H         1 1      0.0000
    23 C8      -2.4397  -0.6480   1.0555   C.ar      1 1      0.0000
    24 H8      -1.0518  -0.8706   2.6802   H         1 1      0.0000
    25 C7      -2.6119  -0.1519  -0.2351   C.ar      1 1      0.0000
    26 H6      -1.7654   0.8685  -1.9272   H         1 1      0.0000
    27 H7      -3.2543  -1.1641   1.5474   H         1 1      0.0000
    28 NO      -3.9148  -0.3344  -0.8999   N.pl3     1 1      0.0000
    29 ON2     -4.5544   0.7204  -1.2625   O.2       1 1      0.0000
    30 ON1     -4.3351  -1.5366  -1.0762   O.2       1 1      0.0000
    31 C15      2.4153  -0.7476  -2.8503   C.3       1 1      0.0000
    32 H15C     3.4868  -0.6105  -3.0416   H         1 1      0.0000
    33 H15A     2.0816  -1.5577  -3.5056   H         1 1      0.0000
    34 H15B     1.8634   0.1512  -3.1534   H         1 1      0.0000
@<TRIPOS>BOND
     1     1     2    1
     2     1    15    1
     3     1    16    1
     4     1    18    1
     5     2     3    1
     6     2     4    1
     7     2    14    1
     8     4     5    1
     9     4     8    2
    10     5     6    1
    11     5     7    1
    12     5    31    1
    13     8     9    1
    14     8    10    1
    15    10    11    1
    16    10    12    1
    17    10    13    1
    18    15    17    1
    19    18    19   ar
    20    18    20   ar
    21    19    21   ar
    22    19    22    1
    23    20    23   ar
    24    20    24    1
    25    21    25   ar
    26    21    26    1
    27    23    25   ar
    28    23    27    1
    29    25    28    1
    30    28    29   un
    31    28    30   un
    32    31    32    1
    33    31    33    1
    34    31    34    1
@<TRIPOS>SUBSTRUCTURE
     1 1           1 GROUP             0 ****  ****    0  
@<TRIPOS>MOLECULE
Molecule Name_00105
    34    34     1     0     0
SMALL
NO_CHARGES
****
Generated from the CSD

@<TRIPOS>ATOM
     1 C11      1.3802  -1.4805   0.4520   C.3       1 1      0.0000
     2 C12      2.3855  -0.8395  -0.5573   C.3       1 1      0.0000
     3 H12A     2.0476  -1.0485  -1.5776   H         1 1      0.0000
     4 C13      2.5403   0.6362  -0.3028   C.2       1 1      0.0000
     5 C14      3.5084   1.0673   0.7604   C.3       1 1      0.0000
     6 H14A     3.2272   2.0890   1.0592   H         1 1      0.0000
     7 H14B     4.4749   1.1602   0.2422   H         1 1      0.0000
     8 N        1.8645   1.5340  -0.9681   N.pl3     1 1      0.0000
     9 HN       2.0218   2.5135  -0.7100   H         1 1      0.0000
    10 C        0.8602   1.3280  -2.0528   C.3       1 1      0.0000
    11 HA       1.0157   2.1018  -2.8082   H         1 1      0.0000
    12 HB       0.9919   0.3460  -2.5078   H         1 1      0.0000
    13 HC      -0.1482   1.4202  -1.6369   H         1 1      0.0000
    14 H12B     3.3563  -1.3207  -0.4162   H         1 1      0.0000
    15 O1       1.4424  -2.9238   0.1238   O.3       1 1      0.0000
    16 H11      1.7323  -1.3241   1.4786   H         1 1      0.0000
    17 OH1      0.7622  -3.4369   0.6355   H         1 1      0.0000
    18 C10     -0.0043  -0.8905   0.2819   C.ar      1 1      0.0000
    19 C5      -0.2736   0.4078   0.7465   C.ar      1 1      0.0000
    20 C9      -1.0211  -1.6445  -0.3219   C.ar      1 1      0.0000
    21 C6      -1.5511   0.9483   0.6163   C.ar      1 1      0.0000
    22 H5       0.5177   1.0027   1.1914   H         1 1      0.0000
    23 C8      -2.3073  -1.1162  -0.4472   C.ar      1 1      0.0000
    24 H8      -0.8158  -2.6411  -0.7026   H         1 1      0.0000
    25 C7      -2.5496   0.1717   0.0265   C.ar      1 1      0.0000
    26 H6      -1.7810   1.9481   0.9616   H         1 1      0.0000
    27 H7      -3.1079  -1.6799  -0.9088   H         1 1      0.0000
    28 NO      -3.9057   0.7347  -0.1042   N.pl3     1 1      0.0000
    29 ON2     -4.8981  -0.0821  -0.0745   O.2       1 1      0.0000
    30 ON1     -4.0156   2.0084  -0.2418   O.2       1 1      0.0000
    31 C15      3.6264   0.1593   1.9951   C.3       1 1      0.0000
    32 H15C     3.9900  -0.8427   1.7352   H         1 1      0.0000
    33 H15A     4.3588   0.5885   2.6853   H         1 1      0.0000
    34 H15B     2.6806   0.0825   2.5462   H         1 1      0.0000
@<TRIPOS>BOND
     1     1     2    1
     2     1    15    1
     3     1    16    1
     4     1    18    1
     5     2     3    1
     6     2     4    1
     7     2    14    1
     8     4     5    1
     9     4     8    2
    10     5     6    1
    11     5     7    1
    12     5    31    1
    13     8     9    1
    14     8    10    1
    15    10    11    1
    16    10    12    1
    17    10    13    1
    18    15    17    1
    19    18    19   ar
    20    18    20   ar
    21    19    21   ar
    22    19    22    1
    23    20    23   ar
    24    20    24    1
    25    21    25   ar
    26    21    26    1
    27    23    25   ar
    28    23    27    1
    29    25    28    1
    30    28    29   un
    31    28    30   un
    32    31    32    1
    33    31    33    1
    34    31    34    1
@<TRIPOS>SUBSTRUCTURE
     1 1           1 GROUP             0 ****  ****    0  
@<TRIPOS>MOLECULE
Molecule Name_00106
    34    34     1     0     0
SMALL
NO_CHARGES
****
Generated from the CSD

@<TRIPOS>ATOM
     1 C11      1.0355  -0.3976  -0.4956   C.3       1 1      0.0000
     2 C12      1.7666   0.0146   0.8218   C.3       1 1      0.0000
     3 H12A     1.4879  -0.6841   1.6173   H         1 1      0.0000
     4 C13      3.2569   0.0749   0.6171   C.2       1 1      0.0000
     5 C14      4.0281  -1.2108   0.6906   C.3       1 1      0.0000
     6 H14A     3.4113  -1.9264   1.2560   H         1 1      0.0000
     7 H14B     4.8932  -0.9856   1.3326   H         1 1      0.0000
     8 N        3.8849   1.1962   0.3850   N.pl3     1 1      0.0000
     9 HN       4.9030   1.1405   0.2796   H         1 1      0.0000
    10 C        3.3203   2.5735   0.2745   C.3       1 1      0.0000
    11 HA       3.8905   3.1119  -0.4862   H         1 1      0.0000
    12 HB       2.2722   2.5292  -0.0222   H         1 1      0.0000
    13 HC       3.4199   3.0854   1.2369   H         1 1      0.0000
    14 H12B     1.4138   1.0093   1.1049   H         1 1      0.0000
    15 O1       1.5732   0.5544  -1.4953   O.3       1 1      0.0000
    16 H11      1.3191  -1.4193  -0.7751   H         1 1      0.0000
    17 OH1      1.1043   0.4614  -2.3666   H         1 1      0.0000
    18 C10     -0.4670  -0.3020  -0.3307   C.ar      1 1      0.0000
    19 C5      -1.1863   0.6829  -1.0283   C.ar      1 1      0.0000
    20 C9      -1.1378  -1.1827   0.5303   C.ar      1 1      0.0000
    21 C6      -2.5652   0.7935  -0.8628   C.ar      1 1      0.0000
    22 H5      -0.6732   1.3494  -1.7142   H         1 1      0.0000
    23 C8      -2.5178  -1.0731   0.7115   C.ar      1 1      0.0000
    24 H8      -0.5921  -1.9604   1.0573   H         1 1      0.0000
    25 C7      -3.2070  -0.0844   0.0121   C.ar      1 1      0.0000
    26 H6      -3.1413   1.5406  -1.3936   H         1 1      0.0000
    27 H7      -3.0565  -1.7410   1.3715   H         1 1      0.0000
    28 NO      -4.6643   0.0351   0.1990   N.pl3     1 1      0.0000
    29 ON2     -5.4143  -0.1140  -0.8347   O.2       1 1      0.0000
    30 ON1     -5.0988   0.2829   1.3834   O.2       1 1      0.0000
    31 C15      4.4746  -1.8247  -0.6461   C.3       1 1      0.0000
    32 H15C     5.1632  -1.1668  -1.1909   H         1 1      0.0000
    33 H15A     5.0194  -2.7528  -0.4486   H         1 1      0.0000
    34 H15B     3.6238  -2.0884  -1.2870   H         1 1      0.0000
@<TRIPOS>BOND
     1     1     2    1
     2     1    15    1
     3     1    16    1
     4     1    18    1
     5     2     3    1
     6     2     4    1
     7     2    14    1
     8     4     5    1
     9     4     8    2
    10     5     6    1
    11     5     7    1
    12     5    31    1
    13     8     9    1
    14     8    10    1
    15    10    11    1
    16    10    12    1
    17    10    13    1
    18    15    17    1
    19    18    19   ar
    20    18    20   ar
    21    19    21   ar
    22    19    22    1
    23    20    23   ar
    24    20    24    1
    25    21    25   ar
    26    21    26    1
    27    23    25   ar
    28    23    27    1
    29    25    28    1
    30    28    29   un
    31    28    30   un
    32    31    32    1
    33    31    33    1
    34    31    34    1
@<TRIPOS>SUBSTRUCTURE
     1 1           1 GROUP             0 ****  ****    0  
@<TRIPOS>MOLECULE
Molecule Name_00107
    34    34     1     0     0
SMALL
NO_CHARGES
****
Generated from the CSD

@<TRIPOS>ATOM
     1 C11      0.9528   0.1836  -0.8440   C.3       1 1      0.0000
     2 C12      1.7923  -0.3909   0.3415   C.3       1 1      0.0000
     3 H12A     1.5615  -1.4547   0.4586   H         1 1      0.0000
     4 C13      3.2631  -0.1502   0.1291   C.2       1 1      0.0000
     5 C14      4.0106  -1.1068  -0.7537   C.3       1 1      0.0000
     6 H14A     4.6137  -0.5022  -1.4487   H         1 1      0.0000
     7 H14B     3.2355  -1.5892  -1.3685   H         1 1      0.0000
     8 N        3.8945   0.8486   0.6852   N.pl3     1 1      0.0000
     9 HN       4.9000   0.9189   0.4987   H         1 1      0.0000
    10 C        3.3521   1.9050   1.5893   C.3       1 1      0.0000
    11 HA       3.8727   2.8395   1.3670   H         1 1      0.0000
    12 HB       2.2834   2.0362   1.4182   H         1 1      0.0000
    13 HC       3.5366   1.6223   2.6306   H         1 1      0.0000
    14 H12B     1.4833   0.1257   1.2535   H         1 1      0.0000
    15 O1       1.4311   1.5814  -0.9536   O.3       1 1      0.0000
    16 H11      1.1924  -0.3577  -1.7669   H         1 1      0.0000
    17 OH1      0.8943   2.0926  -1.6156   H         1 1      0.0000
    18 C10     -0.5301   0.0831  -0.5527   C.ar      1 1      0.0000
    19 C5      -1.2805   1.2502  -0.3320   C.ar      1 1      0.0000
    20 C9      -1.1504  -1.1729  -0.4852   C.ar      1 1      0.0000
    21 C6      -2.6399   1.1650  -0.0387   C.ar      1 1      0.0000
    22 H5      -0.8083   2.2245  -0.4084   H         1 1      0.0000
    23 C8      -2.5096  -1.2697  -0.1811   C.ar      1 1      0.0000
    24 H8      -0.5818  -2.0790  -0.6751   H         1 1      0.0000
    25 C7      -3.2301  -0.0974   0.0387   C.ar      1 1      0.0000
    26 H6      -3.2396   2.0502   0.1297   H         1 1      0.0000
    27 H7      -3.0094  -2.2281  -0.1228   H         1 1      0.0000
    28 NO      -4.6657  -0.1938   0.3591   N.pl3     1 1      0.0000
    29 ON2     -5.4966   0.3771  -0.4390   O.2       1 1      0.0000
    30 ON1     -5.0018  -0.8411   1.4179   O.2       1 1      0.0000
    31 C15      4.8897  -2.1526  -0.0491   C.3       1 1      0.0000
    32 H15C     4.2991  -2.8269   0.5836   H         1 1      0.0000
    33 H15A     5.3757  -2.7778  -0.8041   H         1 1      0.0000
    34 H15B     5.6909  -1.6914   0.5421   H         1 1      0.0000
@<TRIPOS>BOND
     1     1     2    1
     2     1    15    1
     3     1    16    1
     4     1    18    1
     5     2     3    1
     6     2     4    1
     7     2    14    1
     8     4     5    1
     9     4     8    2
    10     5     6    1
    11     5     7    1
    12     5    31    1
    13     8     9    1
    14     8    10    1
    15    10    11    1
    16    10    12    1
    17    10    13    1
    18    15    17    1
    19    18    19   ar
    20    18    20   ar
    21    19    21   ar
    22    19    22    1
    23    20    23   ar
    24    20    24    1
    25    21    25   ar
    26    21    26    1
    27    23    25   ar
    28    23    27    1
    29    25    28    1
    30    28    29   un
    31    28    30   un
    32    31    32    1
    33    31    33    1
    34    31    34    1
@<TRIPOS>SUBSTRUCTURE
     1 1           1 GROUP             0 ****  ****    0  
@<TRIPOS>MOLECULE
Molecule Name_00108
    34    34     1     0     0
SMALL
NO_CHARGES
****
Generated from the CSD

@<TRIPOS>ATOM
     1 C11      1.0279  -0.3821   0.6874   C.3       1 1      0.0000
     2 C12      1.8331   0.2264  -0.5049   C.3       1 1      0.0000
     3 H12A     1.3366   1.1434  -0.8387   H         1 1      0.0000
     4 C13      3.2688   0.4669  -0.1210   C.2       1 1      0.0000
     5 C14      4.0296  -0.6693   0.4983   C.3       1 1      0.0000
     6 H14A     3.4613  -0.9953   1.3831   H         1 1      0.0000
     7 H14B     4.9538  -0.2136   0.8848   H         1 1      0.0000
     8 N        3.8575   1.6178  -0.3061   N.pl3     1 1      0.0000
     9 HN       4.8309   1.6927   0.0062   H         1 1      0.0000
    10 C        3.2936   2.8674  -0.8963   C.3       1 1      0.0000
    11 HA       4.0861   3.3597  -1.4649   H         1 1      0.0000
    12 HB       2.4640   2.6294  -1.5626   H         1 1      0.0000
    13 HC       2.9553   3.5287  -0.0923   H         1 1      0.0000
    14 H12B     1.8087  -0.4916  -1.3282   H         1 1      0.0000
    15 O1       1.4861  -1.7905   0.7237   O.3       1 1      0.0000
    16 H11      1.3103   0.1179   1.6215   H         1 1      0.0000
    17 OH1      1.0436  -2.2921   1.4588   H         1 1      0.0000
    18 C10     -0.4627  -0.2471   0.4557   C.ar      1 1      0.0000
    19 C5      -1.3155  -1.3274   0.7378   C.ar      1 1      0.0000
    20 C9      -0.9898   0.9474  -0.0565   C.ar      1 1      0.0000
    21 C6      -2.6847  -1.2199   0.5038   C.ar      1 1      0.0000
    22 H5      -0.9135  -2.2440   1.1577   H         1 1      0.0000
    23 C8      -2.3590   1.0616  -0.3049   C.ar      1 1      0.0000
    24 H8      -0.3401   1.7946  -0.2577   H         1 1      0.0000
    25 C7      -3.1823  -0.0263  -0.0215   C.ar      1 1      0.0000
    26 H6      -3.3619  -2.0366   0.7185   H         1 1      0.0000
    27 H7      -2.7880   1.9731  -0.7007   H         1 1      0.0000
    28 NO      -4.6288   0.0891  -0.2809   N.pl3     1 1      0.0000
    29 ON2     -5.1623   1.2552  -0.1869   O.2       1 1      0.0000
    30 ON1     -5.2712  -0.9826  -0.5838   O.2       1 1      0.0000
    31 C15      4.3414  -1.8681  -0.4121   C.3       1 1      0.0000
    32 H15C     4.9825  -1.5868  -1.2568   H         1 1      0.0000
    33 H15A     4.8923  -2.6189   0.1623   H         1 1      0.0000
    34 H15B     3.4311  -2.3578  -0.7804   H         1 1      0.0000
@<TRIPOS>BOND
     1     1     2    1
     2     1    15    1
     3     1    16    1
     4     1    18    1
     5     2     3    1
     6     2     4    1
     7     2    14    1
     8     4     5    1
     9     4     8    2
    10     5     6    1
    11     5     7    1
    12     5    31    1
    13     8     9    1
    14     8    10    1
    15    10    11    1
    16    10    12    1
    17    10    13    1
    18    15    17    1
    19    18    19   ar
    20    18    20   ar
    21    19    21   ar
    22    19    22    1
    23    20    23   ar
    24    20    24    1
    25    21    25   ar
    26    21    26    1
    27    23    25   ar
    28    23    27    1
    29    25    28    1
    30    28    29   un
    31    28    30   un
    32    31    32    1
    33    31    33    1
    34    31    34    1
@<TRIPOS>SUBSTRUCTURE
     1 1           1 GROUP             0 ****  ****    0  
@<TRIPOS>MOLECULE
Molecule Name_00109
    34    34     1     0     0
SMALL
NO_CHARGES
****
Generated from the CSD

@<TRIPOS>ATOM
     1 C11      1.2395  -0.6313  -1.5110   C.3       1 1      0.0000
     2 C12      2.2813   0.3814  -0.9372   C.3       1 1      0.0000
     3 H12A     1.9670   1.3986  -1.1924   H         1 1      0.0000
     4 C13      2.4536   0.1971   0.5470   C.2       1 1      0.0000
     5 C14      2.7803  -1.1788   1.0503   C.3       1 1      0.0000
     6 H14A     2.0350  -1.8661   0.6210   H         1 1      0.0000
     7 H14B     2.5701  -1.1425   2.1300   H         1 1      0.0000
     8 N        2.3251   1.1841   1.3925   N.pl3     1 1      0.0000
     9 HN       2.4400   0.9576   2.3856   H         1 1      0.0000
    10 C        2.0047   2.6145   1.1116   C.3       1 1      0.0000
    11 HA       2.5596   3.2307   1.8230   H         1 1      0.0000
    12 HB       2.3031   2.8759   0.0961   H         1 1      0.0000
    13 HC       0.9307   2.7794   1.2447   H         1 1      0.0000
    14 H12B     3.2401   0.1900  -1.4251   H         1 1      0.0000
    15 O1       1.2831  -0.3744  -2.9694   O.3       1 1      0.0000
    16 H11      1.5686  -1.6579  -1.3112   H         1 1      0.0000
    17 OH1      0.5809  -0.8924  -3.4453   H         1 1      0.0000
    18 C10     -0.1292  -0.3973  -0.9061   C.ar      1 1      0.0000
    19 C5      -0.5736  -1.2060   0.1533   C.ar      1 1      0.0000
    20 C9      -0.9595   0.6127  -1.4137   C.ar      1 1      0.0000
    21 C6      -1.8411  -1.0135   0.6986   C.ar      1 1      0.0000
    22 H5       0.0766  -1.9717   0.5644   H         1 1      0.0000
    23 C8      -2.2356   0.8065  -0.8816   C.ar      1 1      0.0000
    24 H8      -0.6153   1.2559  -2.2187   H         1 1      0.0000
    25 C7      -2.6544  -0.0125   0.1651   C.ar      1 1      0.0000
    26 H6      -2.2031  -1.6204   1.5186   H         1 1      0.0000
    27 H7      -2.8940   1.5789  -1.2578   H         1 1      0.0000
    28 NO      -4.0005   0.1884   0.7313   N.pl3     1 1      0.0000
    29 ON2     -4.8236  -0.7981   0.6824   O.2       1 1      0.0000
    30 ON1     -4.2722   1.3381   1.2388   O.2       1 1      0.0000
    31 C15      4.2038  -1.6923   0.7797   C.3       1 1      0.0000
    32 H15C     4.9644  -1.0736   1.2720   H         1 1      0.0000
    33 H15A     4.3045  -2.7001   1.1935   H         1 1      0.0000
    34 H15B     4.4209  -1.7685  -0.2932   H         1 1      0.0000
@<TRIPOS>BOND
     1     1     2    1
     2     1    15    1
     3     1    16    1
     4     1    18    1
     5     2     3    1
     6     2     4    1
     7     2    14    1
     8     4     5    1
     9     4     8    2
    10     5     6    1
    11     5     7    1
    12     5    31    1
    13     8     9    1
    14     8    10    1
    15    10    11    1
    16    10    12    1
    17    10    13    1
    18    15    17    1
    19    18    19   ar
    20    18    20   ar
    21    19    21   ar
    22    19    22    1
    23    20    23   ar
    24    20    24    1
    25    21    25   ar
    26    21    26    1
    27    23    25   ar
    28    23    27    1
    29    25    28    1
    30    28    29   un
    31    28    30   un
    32    31    32    1
    33    31    33    1
    34    31    34    1
@<TRIPOS>SUBSTRUCTURE
     1 1           1 GROUP             0 ****  ****    0  
@<TRIPOS>MOLECULE
Molecule Name_00110
    34    34     1     0     0
SMALL
NO_CHARGES
****
Generated from the CSD

@<TRIPOS>ATOM
     1 C11      0.9921  -0.7461   0.4089   C.3       1 1      0.0000
     2 C12      1.8174   0.1912  -0.5294   C.3       1 1      0.0000
     3 H12A     1.2788   1.1365  -0.6516   H         1 1      0.0000
     4 C13      3.2107   0.3975   0.0019   C.2       1 1      0.0000
     5 C14      4.0447  -0.8200   0.2767   C.3       1 1      0.0000
     6 H14A     3.3502  -1.6615   0.4242   H         1 1      0.0000
     7 H14B     4.5039  -0.6326   1.2592   H         1 1      0.0000
     8 N        3.7024   1.5859   0.2291   N.pl3     1 1      0.0000
     9 HN       4.6529   1.6258   0.6107   H         1 1      0.0000
    10 C        3.0533   2.9152   0.0304   C.3       1 1      0.0000
    11 HA       3.8209   3.6197  -0.2986   H         1 1      0.0000
    12 HB       2.2755   2.8456  -0.7304   H         1 1      0.0000
    13 HC       2.6258   3.2564   0.9786   H         1 1      0.0000
    14 H12B     1.8860  -0.2892  -1.5085   H         1 1      0.0000
    15 O1       1.3960  -2.1036  -0.0256   O.3       1 1      0.0000
    16 H11      1.2956  -0.5910   1.4511   H         1 1      0.0000
    17 OH1      0.8567  -2.8014   0.4327   H         1 1      0.0000
    18 C10     -0.4927  -0.4896   0.2564   C.ar      1 1      0.0000
    19 C5      -0.9552   0.3577  -0.7644   C.ar      1 1      0.0000
    20 C9      -1.4039  -1.0818   1.1430   C.ar      1 1      0.0000
    21 C6      -2.3175   0.6187  -0.8959   C.ar      1 1      0.0000
    22 H5      -0.2546   0.7973  -1.4673   H         1 1      0.0000
    23 C8      -2.7699  -0.8180   1.0266   C.ar      1 1      0.0000
    24 H8      -1.0564  -1.7547   1.9220   H         1 1      0.0000
    25 C7      -3.2022   0.0300   0.0090   C.ar      1 1      0.0000
    26 H6      -2.6978   1.2635  -1.6777   H         1 1      0.0000
    27 H7      -3.4913  -1.2630   1.6999   H         1 1      0.0000
    28 NO      -4.6436   0.3112  -0.1191   N.pl3     1 1      0.0000
    29 ON2     -5.4386  -0.2426   0.7261   O.2       1 1      0.0000
    30 ON1     -5.0203   1.0917  -1.0688   O.2       1 1      0.0000
    31 C15      5.1087  -1.1786  -0.7732   C.3       1 1      0.0000
    32 H15C     5.8661  -0.3916  -0.8762   H         1 1      0.0000
    33 H15A     5.6373  -2.0812  -0.4521   H         1 1      0.0000
    34 H15B     4.6671  -1.4030  -1.7523   H         1 1      0.0000
@<TRIPOS>BOND
     1     1     2    1
     2     1    15    1
     3     1    16    1
     4     1    18    1
     5     2     3    1
     6     2     4    1
     7     2    14    1
     8     4     5    1
     9     4     8    2
    10     5     6    1
    11     5     7    1
    12     5    31    1
    13     8     9    1
    14     8    10    1
    15    10    11    1
    16    10    12    1
    17    10    13    1
    18    15    17    1
    19    18    19   ar
    20    18    20   ar
    21    19    21   ar
    22    19    22    1
    23    20    23   ar
    24    20    24    1
    25    21    25   ar
    26    21    26    1
    27    23    25   ar
    28    23    27    1
    29    25    28    1
    30    28    29   un
    31    28    30   un
    32    31    32    1
    33    31    33    1
    34    31    34    1
@<TRIPOS>SUBSTRUCTURE
     1 1           1 GROUP             0 ****  ****    0  
@<TRIPOS>MOLECULE
Molecule Name_00111
    34    34     1     0     0
SMALL
NO_CHARGES
****
Generated from the CSD

@<TRIPOS>ATOM
     1 C11      1.0796   0.5697  -0.4799   C.3       1 1      0.0000
     2 C12      1.8993   0.0486   0.7436   C.3       1 1      0.0000
     3 H12A     1.4182  -0.8529   1.1366   H         1 1      0.0000
     4 C13      3.3366  -0.1944   0.3675   C.2       1 1      0.0000
     5 C14      3.6863  -1.5165  -0.2515   C.3       1 1      0.0000
     6 H14A     3.9175  -2.2089   0.5727   H         1 1      0.0000
     7 H14B     4.6391  -1.3412  -0.7740   H         1 1      0.0000
     8 N        4.2703   0.6970   0.5651   N.pl3     1 1      0.0000
     9 HN       5.2235   0.4330   0.2959   H         1 1      0.0000
    10 C        4.1449   2.0597   1.1612   C.3       1 1      0.0000
    11 HA       4.7420   2.7480   0.5583   H         1 1      0.0000
    12 HB       3.1031   2.3810   1.1527   H         1 1      0.0000
    13 HC       4.5279   2.0446   2.1865   H         1 1      0.0000
    14 H12B     1.8680   0.8162   1.5206   H         1 1      0.0000
    15 O1       1.3986   2.0161  -0.5118   O.3       1 1      0.0000
    16 H11      1.4415   0.0956  -1.3999   H         1 1      0.0000
    17 OH1      0.8513   2.4884  -1.1939   H         1 1      0.0000
    18 C10     -0.3976   0.2899  -0.2973   C.ar      1 1      0.0000
    19 C5      -0.8688  -1.0332  -0.3322   C.ar      1 1      0.0000
    20 C9      -1.2969   1.3501  -0.1118   C.ar      1 1      0.0000
    21 C6      -2.2294  -1.2972  -0.1901   C.ar      1 1      0.0000
    22 H5      -0.1721  -1.8570  -0.4505   H         1 1      0.0000
    23 C8      -2.6635   1.0970   0.0205   C.ar      1 1      0.0000
    24 H8      -0.9382   2.3744  -0.0627   H         1 1      0.0000
    25 C7      -3.1056  -0.2237  -0.0229   C.ar      1 1      0.0000
    26 H6      -2.6151  -2.3084  -0.2081   H         1 1      0.0000
    27 H7      -3.3761   1.8992   0.1636   H         1 1      0.0000
    28 NO      -4.5475  -0.4967   0.1173   N.pl3     1 1      0.0000
    29 ON2     -5.3695   0.3963  -0.3071   O.2       1 1      0.0000
    30 ON1     -4.8974  -1.6100   0.6568   O.2       1 1      0.0000
    31 C15      2.6420  -2.1340  -1.1955   C.3       1 1      0.0000
    32 H15C     2.4269  -1.4835  -2.0524   H         1 1      0.0000
    33 H15A     3.0381  -3.0685  -1.6040   H         1 1      0.0000
    34 H15B     1.7098  -2.3872  -0.6750   H         1 1      0.0000
@<TRIPOS>BOND
     1     1     2    1
     2     1    15    1
     3     1    16    1
     4     1    18    1
     5     2     3    1
     6     2     4    1
     7     2    14    1
     8     4     5    1
     9     4     8    2
    10     5     6    1
    11     5     7    1
    12     5    31    1
    13     8     9    1
    14     8    10    1
    15    10    11    1
    16    10    12    1
    17    10    13    1
    18    15    17    1
    19    18    19   ar
    20    18    20   ar
    21    19    21   ar
    22    19    22    1
    23    20    23   ar
    24    20    24    1
    25    21    25   ar
    26    21    26    1
    27    23    25   ar
    28    23    27    1
    29    25    28    1
    30    28    29   un
    31    28    30   un
    32    31    32    1
    33    31    33    1
    34    31    34    1
@<TRIPOS>SUBSTRUCTURE
     1 1           1 GROUP             0 ****  ****    0  
@<TRIPOS>MOLECULE
Molecule Name_00112
    34    34     1     0     0
SMALL
NO_CHARGES
****
Generated from the CSD

@<TRIPOS>ATOM
     1 C11      1.0176  -0.4276   0.7302   C.3       1 1      0.0000
     2 C12      1.8700  -0.0642  -0.5274   C.3       1 1      0.0000
     3 H12A     1.3589   0.7252  -1.0881   H         1 1      0.0000
     4 C13      3.2684   0.3332  -0.1364   C.2       1 1      0.0000
     5 C14      4.2616  -0.7613   0.1263   C.3       1 1      0.0000
     6 H14A     3.8019  -1.4479   0.8539   H         1 1      0.0000
     7 H14B     5.0905  -0.2696   0.6579   H         1 1      0.0000
     8 N        3.6322   1.5819  -0.0185   N.pl3     1 1      0.0000
     9 HN       4.5998   1.7542   0.2727   H         1 1      0.0000
    10 C        2.8149   2.8131  -0.2282   C.3       1 1      0.0000
    11 HA       3.4620   3.5774  -0.6649   H         1 1      0.0000
    12 HB       1.9884   2.6063  -0.9086   H         1 1      0.0000
    13 HC       2.4328   3.1643   0.7356   H         1 1      0.0000
    14 H12B     1.9253  -0.9509  -1.1636   H         1 1      0.0000
    15 O1       1.4181  -1.8240   1.0207   O.3       1 1      0.0000
    16 H11      1.3012   0.2161   1.5712   H         1 1      0.0000
    17 OH1      0.9269  -2.1810   1.8075   H         1 1      0.0000
    18 C10     -0.4616  -0.2810   0.4393   C.ar      1 1      0.0000
    19 C5      -0.9308   0.8513  -0.2475   C.ar      1 1      0.0000
    20 C9      -1.3642  -1.2641   0.8701   C.ar      1 1      0.0000
    21 C6      -2.2928   1.0058  -0.4970   C.ar      1 1      0.0000
    22 H5      -0.2318   1.6012  -0.6039   H         1 1      0.0000
    23 C8      -2.7322  -1.1134   0.6348   C.ar      1 1      0.0000
    24 H8      -1.0074  -2.1527   1.3833   H         1 1      0.0000
    25 C7      -3.1722   0.0212  -0.0438   C.ar      1 1      0.0000
    26 H6      -2.6771   1.8666  -1.0289   H         1 1      0.0000
    27 H7      -3.4473  -1.8586   0.9587   H         1 1      0.0000
    28 NO      -4.6154   0.1849  -0.2958   N.pl3     1 1      0.0000
    29 ON2     -5.4330  -0.3264   0.5545   O.2       1 1      0.0000
    30 ON1     -4.9709   0.8275  -1.3512   O.2       1 1      0.0000
    31 C15      4.7718  -1.5382  -1.0981   C.3       1 1      0.0000
    32 H15C     5.3132  -0.8909  -1.7993   H         1 1      0.0000
    33 H15A     5.4814  -2.3021  -0.7661   H         1 1      0.0000
    34 H15B     3.9641  -2.0643  -1.6224   H         1 1      0.0000
@<TRIPOS>BOND
     1     1     2    1
     2     1    15    1
     3     1    16    1
     4     1    18    1
     5     2     3    1
     6     2     4    1
     7     2    14    1
     8     4     5    1
     9     4     8    2
    10     5     6    1
    11     5     7    1
    12     5    31    1
    13     8     9    1
    14     8    10    1
    15    10    11    1
    16    10    12    1
    17    10    13    1
    18    15    17    1
    19    18    19   ar
    20    18    20   ar
    21    19    21   ar
    22    19    22    1
    23    20    23   ar
    24    20    24    1
    25    21    25   ar
    26    21    26    1
    27    23    25   ar
    28    23    27    1
    29    25    28    1
    30    28    29   un
    31    28    30   un
    32    31    32    1
    33    31    33    1
    34    31    34    1
@<TRIPOS>SUBSTRUCTURE
     1 1           1 GROUP             0 ****  ****    0  
@<TRIPOS>MOLECULE
Molecule Name_00113
    34    34     1     0     0
SMALL
NO_CHARGES
****
Generated from the CSD

@<TRIPOS>ATOM
     1 C11      0.9776   0.8169  -0.4004   C.3       1 1      0.0000
     2 C12      1.8736  -0.0863   0.5061   C.3       1 1      0.0000
     3 H12A     1.4193  -1.0799   0.5787   H         1 1      0.0000
     4 C13      3.2846  -0.1452  -0.0153   C.2       1 1      0.0000
     5 C14      3.5826  -1.1094  -1.1265   C.3       1 1      0.0000
     6 H14A     4.5484  -0.8115  -1.5633   H         1 1      0.0000
     7 H14B     2.8254  -0.8968  -1.8963   H         1 1      0.0000
     8 N        4.2390   0.6042   0.4673   N.pl3     1 1      0.0000
     9 HN       5.1724   0.4787   0.0626   H         1 1      0.0000
    10 C        4.1641   1.6171   1.5611   C.3       1 1      0.0000
    11 HA       4.8406   2.4371   1.3087   H         1 1      0.0000
    12 HB       3.1476   2.0009   1.6513   H         1 1      0.0000
    13 HC       4.4805   1.1587   2.5034   H         1 1      0.0000
    14 H12B     1.8903   0.3530   1.5065   H         1 1      0.0000
    15 O1       1.2920   2.1868   0.0678   O.3       1 1      0.0000
    16 H11      1.2814   0.7105  -1.4486   H         1 1      0.0000
    17 OH1      0.7659   2.8656  -0.4325   H         1 1      0.0000
    18 C10     -0.4848   0.4554  -0.2439   C.ar      1 1      0.0000
    19 C5      -0.8752  -0.8943  -0.2373   C.ar      1 1      0.0000
    20 C9      -1.4503   1.4654  -0.1238   C.ar      1 1      0.0000
    21 C6      -2.2210  -1.2345  -0.1189   C.ar      1 1      0.0000
    22 H5      -0.1277  -1.6783  -0.3049   H         1 1      0.0000
    23 C8      -2.8026   1.1353  -0.0157   C.ar      1 1      0.0000
    24 H8      -1.1548   2.5107  -0.1069   H         1 1      0.0000
    25 C7      -3.1639  -0.2104  -0.0171   C.ar      1 1      0.0000
    26 H6      -2.5452  -2.2672  -0.1060   H         1 1      0.0000
    27 H7      -3.5653   1.8978   0.0771   H         1 1      0.0000
    28 NO      -4.5902  -0.5646   0.0978   N.pl3     1 1      0.0000
    29 ON2     -5.4520   0.2598  -0.3827   O.2       1 1      0.0000
    30 ON1     -4.8880  -1.6755   0.6726   O.2       1 1      0.0000
    31 C15      3.5961  -2.6021  -0.7596   C.3       1 1      0.0000
    32 H15C     2.6171  -2.9467  -0.4037   H         1 1      0.0000
    33 H15A     3.8275  -3.1877  -1.6543   H         1 1      0.0000
    34 H15B     4.3687  -2.8406  -0.0177   H         1 1      0.0000
@<TRIPOS>BOND
     1     1     2    1
     2     1    15    1
     3     1    16    1
     4     1    18    1
     5     2     3    1
     6     2     4    1
     7     2    14    1
     8     4     5    1
     9     4     8    2
    10     5     6    1
    11     5     7    1
    12     5    31    1
    13     8     9    1
    14     8    10    1
    15    10    11    1
    16    10    12    1
    17    10    13    1
    18    15    17    1
    19    18    19   ar
    20    18    20   ar
    21    19    21   ar
    22    19    22    1
    23    20    23   ar
    24    20    24    1
    25    21    25   ar
    26    21    26    1
    27    23    25   ar
    28    23    27    1
    29    25    28    1
    30    28    29   un
    31    28    30   un
    32    31    32    1
    33    31    33    1
    34    31    34    1
@<TRIPOS>SUBSTRUCTURE
     1 1           1 GROUP             0 ****  ****    0  
@<TRIPOS>MOLECULE
Molecule Name_00114
    34    34     1     0     0
SMALL
NO_CHARGES
****
Generated from the CSD

@<TRIPOS>ATOM
     1 C11      1.0307   0.3343   0.7537   C.3       1 1      0.0000
     2 C12      1.8532   0.1804  -0.5654   C.3       1 1      0.0000
     3 H12A     1.5485   0.9625  -1.2684   H         1 1      0.0000
     4 C13      3.3324   0.2136  -0.2872   C.2       1 1      0.0000
     5 C14      3.9962  -1.0651   0.1344   C.3       1 1      0.0000
     6 H14A     3.9074  -1.1300   1.2299   H         1 1      0.0000
     7 H14B     5.0660  -0.9101  -0.0726   H         1 1      0.0000
     8 N        4.0392   1.3061  -0.3978   N.pl3     1 1      0.0000
     9 HN       5.0354   1.2354  -0.1672   H         1 1      0.0000
    10 C        3.5860   2.6714  -0.7959   C.3       1 1      0.0000
    11 HA       4.3864   3.1369  -1.3760   H         1 1      0.0000
    12 HB       2.6857   2.6071  -1.4074   H         1 1      0.0000
    13 HC       3.3917   3.2662   0.1023   H         1 1      0.0000
    14 H12B     1.6037  -0.7879  -1.0060   H         1 1      0.0000
    15 O1       1.5812  -0.7306   1.6241   O.3       1 1      0.0000
    16 H11      1.2296   1.3137   1.2047   H         1 1      0.0000
    17 OH1      1.0640  -0.8049   2.4695   H         1 1      0.0000
    18 C10     -0.4517   0.1770   0.4858   C.ar      1 1      0.0000
    19 C5      -0.9201  -0.9434  -0.2208   C.ar      1 1      0.0000
    20 C9      -1.3541   1.1562   0.9261   C.ar      1 1      0.0000
    21 C6      -2.2793  -1.0830  -0.4930   C.ar      1 1      0.0000
    22 H5      -0.2270  -1.7150  -0.5407   H         1 1      0.0000
    23 C8      -2.7168   1.0312   0.6488   C.ar      1 1      0.0000
    24 H8      -1.0027   2.0149   1.4912   H         1 1      0.0000
    25 C7      -3.1548  -0.0867  -0.0582   C.ar      1 1      0.0000
    26 H6      -2.6642  -1.9399  -1.0308   H         1 1      0.0000
    27 H7      -3.4314   1.7747   0.9777   H         1 1      0.0000
    28 NO      -4.5926  -0.2242  -0.3528   N.pl3     1 1      0.0000
    29 ON2     -5.2026  -1.2562   0.1119   O.2       1 1      0.0000
    30 ON1     -5.1509   0.6946  -1.0580   O.2       1 1      0.0000
    31 C15      3.4857  -2.3570  -0.5238   C.3       1 1      0.0000
    32 H15C     3.6438  -2.3554  -1.6095   H         1 1      0.0000
    33 H15A     4.0492  -3.2068  -0.1270   H         1 1      0.0000
    34 H15B     2.4284  -2.5474  -0.3003   H         1 1      0.0000
@<TRIPOS>BOND
     1     1     2    1
     2     1    15    1
     3     1    16    1
     4     1    18    1
     5     2     3    1
     6     2     4    1
     7     2    14    1
     8     4     5    1
     9     4     8    2
    10     5     6    1
    11     5     7    1
    12     5    31    1
    13     8     9    1
    14     8    10    1
    15    10    11    1
    16    10    12    1
    17    10    13    1
    18    15    17    1
    19    18    19   ar
    20    18    20   ar
    21    19    21   ar
    22    19    22    1
    23    20    23   ar
    24    20    24    1
    25    21    25   ar
    26    21    26    1
    27    23    25   ar
    28    23    27    1
    29    25    28    1
    30    28    29   un
    31    28    30   un
    32    31    32    1
    33    31    33    1
    34    31    34    1
@<TRIPOS>SUBSTRUCTURE
     1 1           1 GROUP             0 ****  ****    0  
@<TRIPOS>MOLECULE
Molecule Name_00115
    34    34     1     0     0
SMALL
NO_CHARGES
****
Generated from the CSD

@<TRIPOS>ATOM
     1 C11      0.9473  -0.7128  -0.0368   C.3       1 1      0.0000
     2 C12      1.7166   0.6378   0.1186   C.3       1 1      0.0000
     3 H12A     1.3259   1.1717   0.9910   H         1 1      0.0000
     4 C13      3.2011   0.4067   0.2138   C.2       1 1      0.0000
     5 C14      3.6942  -0.5778   1.2341   C.3       1 1      0.0000
     6 H14A     3.1895  -1.5349   1.0309   H         1 1      0.0000
     7 H14B     3.2874  -0.2201   2.1922   H         1 1      0.0000
     8 N        4.0554   1.0312  -0.5515   N.pl3     1 1      0.0000
     9 HN       5.0476   0.8238  -0.3991   H         1 1      0.0000
    10 C        3.7853   2.0400  -1.6179   C.3       1 1      0.0000
    11 HA       4.6054   1.9972  -2.3385   H         1 1      0.0000
    12 HB       2.8466   1.8127  -2.1236   H         1 1      0.0000
    13 HC       3.7424   3.0385  -1.1713   H         1 1      0.0000
    14 H12B     1.5149   1.2434  -0.7682   H         1 1      0.0000
    15 O1       1.4128  -1.2204  -1.3485   O.3       1 1      0.0000
    16 H11      1.2530  -1.4088   0.7534   H         1 1      0.0000
    17 OH1      1.0146  -2.1083  -1.5505   H         1 1      0.0000
    18 C10     -0.5498  -0.4897   0.0178   C.ar      1 1      0.0000
    19 C5      -1.3933  -1.1828  -0.8666   C.ar      1 1      0.0000
    20 C9      -1.0925   0.4202   0.9367   C.ar      1 1      0.0000
    21 C6      -2.7690  -0.9645  -0.8396   C.ar      1 1      0.0000
    22 H5      -0.9784  -1.9059  -1.5616   H         1 1      0.0000
    23 C8      -2.4686   0.6543   0.9643   C.ar      1 1      0.0000
    24 H8      -0.4494   0.9445   1.6380   H         1 1      0.0000
    25 C7      -3.2827  -0.0420   0.0732   C.ar      1 1      0.0000
    26 H6      -3.4392  -1.4906  -1.5073   H         1 1      0.0000
    27 H7      -2.9097   1.3525   1.6641   H         1 1      0.0000
    28 NO      -4.7365   0.2006   0.0987   N.pl3     1 1      0.0000
    29 ON2     -5.5052  -0.7976   0.3550   O.2       1 1      0.0000
    30 ON1     -5.1495   1.3949  -0.1384   O.2       1 1      0.0000
    31 C15      5.2158  -0.7797   1.3188   C.3       1 1      0.0000
    32 H15C     5.7372   0.1414   1.6077   H         1 1      0.0000
    33 H15A     5.4352  -1.5197   2.0943   H         1 1      0.0000
    34 H15B     5.6358  -1.1693   0.3829   H         1 1      0.0000
@<TRIPOS>BOND
     1     1     2    1
     2     1    15    1
     3     1    16    1
     4     1    18    1
     5     2     3    1
     6     2     4    1
     7     2    14    1
     8     4     5    1
     9     4     8    2
    10     5     6    1
    11     5     7    1
    12     5    31    1
    13     8     9    1
    14     8    10    1
    15    10    11    1
    16    10    12    1
    17    10    13    1
    18    15    17    1
    19    18    19   ar
    20    18    20   ar
    21    19    21   ar
    22    19    22    1
    23    20    23   ar
    24    20    24    1
    25    21    25   ar
    26    21    26    1
    27    23    25   ar
    28    23    27    1
    29    25    28    1
    30    28    29   un
    31    28    30   un
    32    31    32    1
    33    31    33    1
    34    31    34    1
@<TRIPOS>SUBSTRUCTURE
     1 1           1 GROUP             0 ****  ****    0  
@<TRIPOS>MOLECULE
Molecule Name_00116
    34    34     1     0     0
SMALL
NO_CHARGES
****
Generated from the CSD

@<TRIPOS>ATOM
     1 C11      1.0187  -0.4457  -0.6507   C.3       1 1      0.0000
     2 C12      1.8264   0.4715   0.3223   C.3       1 1      0.0000
     3 H12A     1.4972   0.2790   1.3486   H         1 1      0.0000
     4 C13      3.3082   0.2655   0.1546   C.2       1 1      0.0000
     5 C14      3.8367  -1.1366   0.2451   C.3       1 1      0.0000
     6 H14A     4.8629  -1.1221  -0.1536   H         1 1      0.0000
     7 H14B     3.2400  -1.7112  -0.4796   H         1 1      0.0000
     8 N        4.1309   1.2567  -0.0601   N.pl3     1 1      0.0000
     9 HN       5.1252   1.0208  -0.1404   H         1 1      0.0000
    10 C        3.8229   2.7121  -0.1823   C.3       1 1      0.0000
    11 HA       4.5977   3.1702  -0.8017   H         1 1      0.0000
    12 HB       2.8506   2.8539  -0.6547   H         1 1      0.0000
    13 HC       3.8311   3.1701   0.8118   H         1 1      0.0000
    14 H12B     1.5898   1.5102   0.0793   H         1 1      0.0000
    15 O1       1.4259   0.0379  -1.9905   O.3       1 1      0.0000
    16 H11      1.3341  -1.4886  -0.5276   H         1 1      0.0000
    17 OH1      0.8967  -0.4038  -2.7065   H         1 1      0.0000
    18 C10     -0.4695  -0.3196  -0.3994   C.ar      1 1      0.0000
    19 C5      -0.9381   0.5308   0.6161   C.ar      1 1      0.0000
    20 C9      -1.3781  -1.0635  -1.1662   C.ar      1 1      0.0000
    21 C6      -2.3041   0.6333   0.8702   C.ar      1 1      0.0000
    22 H5      -0.2388   1.1265   1.1942   H         1 1      0.0000
    23 C8      -2.7482  -0.9762  -0.9123   C.ar      1 1      0.0000
    24 H8      -1.0253  -1.7073  -1.9670   H         1 1      0.0000
    25 C7      -3.1867  -0.1296   0.1039   C.ar      1 1      0.0000
    26 H6      -2.6891   1.2858   1.6434   H         1 1      0.0000
    27 H7      -3.4678  -1.5415  -1.4905   H         1 1      0.0000
    28 NO      -4.6323  -0.0329   0.3756   N.pl3     1 1      0.0000
    29 ON2     -5.0431  -0.3550   1.5506   O.2       1 1      0.0000
    30 ON1     -5.3965   0.3660  -0.5783   O.2       1 1      0.0000
    31 C15      3.8084  -1.7962   1.6333   C.3       1 1      0.0000
    32 H15C     2.7860  -1.9037   2.0164   H         1 1      0.0000
    33 H15A     4.2217  -2.8064   1.5571   H         1 1      0.0000
    34 H15B     4.4260  -1.2566   2.3622   H         1 1      0.0000
@<TRIPOS>BOND
     1     1     2    1
     2     1    15    1
     3     1    16    1
     4     1    18    1
     5     2     3    1
     6     2     4    1
     7     2    14    1
     8     4     5    1
     9     4     8    2
    10     5     6    1
    11     5     7    1
    12     5    31    1
    13     8     9    1
    14     8    10    1
    15    10    11    1
    16    10    12    1
    17    10    13    1
    18    15    17    1
    19    18    19   ar
    20    18    20   ar
    21    19    21   ar
    22    19    22    1
    23    20    23   ar
    24    20    24    1
    25    21    25   ar
    26    21    26    1
    27    23    25   ar
    28    23    27    1
    29    25    28    1
    30    28    29   un
    31    28    30   un
    32    31    32    1
    33    31    33    1
    34    31    34    1
@<TRIPOS>SUBSTRUCTURE
     1 1           1 GROUP             0 ****  ****    0  
@<TRIPOS>MOLECULE
Molecule Name_00117
    34    34     1     0     0
SMALL
NO_CHARGES
****
Generated from the CSD

@<TRIPOS>ATOM
     1 C11      1.0253  -0.4119   0.6569   C.3       1 1      0.0000
     2 C12      1.8344   0.2878  -0.4815   C.3       1 1      0.0000
     3 H12A     1.3509   1.2383  -0.7296   H         1 1      0.0000
     4 C13      3.2755   0.4714  -0.0864   C.2       1 1      0.0000
     5 C14      4.0207  -0.7263   0.4268   C.3       1 1      0.0000
     6 H14A     3.4607  -1.1089   1.2941   H         1 1      0.0000
     7 H14B     4.9619  -0.3226   0.8300   H         1 1      0.0000
     8 N        3.8818   1.6248  -0.1736   N.pl3     1 1      0.0000
     9 HN       4.8576   1.6569   0.1385   H         1 1      0.0000
    10 C        3.3353   2.9299  -0.6491   C.3       1 1      0.0000
    11 HA       4.1331   3.4575  -1.1771   H         1 1      0.0000
    12 HB       2.4992   2.7640  -1.3287   H         1 1      0.0000
    13 HC       3.0113   3.5235   0.2117   H         1 1      0.0000
    14 H12B     1.7950  -0.3538  -1.3651   H         1 1      0.0000
    15 O1       1.5153  -1.8093   0.6129   O.3       1 1      0.0000
    16 H11      1.2818   0.0346   1.6249   H         1 1      0.0000
    17 OH1      0.9966  -2.3901   1.2306   H         1 1      0.0000
    18 C10     -0.4643  -0.2954   0.4092   C.ar      1 1      0.0000
    19 C5      -0.9326   0.3118  -0.7681   C.ar      1 1      0.0000
    20 C9      -1.3755  -0.7762   1.3608   C.ar      1 1      0.0000
    21 C6      -2.3012   0.4453  -0.9918   C.ar      1 1      0.0000
    22 H5      -0.2298   0.6621  -1.5174   H         1 1      0.0000
    23 C8      -2.7489  -0.6373   1.1512   C.ar      1 1      0.0000
    24 H8      -1.0220  -1.2657   2.2639   H         1 1      0.0000
    25 C7      -3.1872  -0.0266  -0.0221   C.ar      1 1      0.0000
    26 H6      -2.6856   0.9046  -1.8935   H         1 1      0.0000
    27 H7      -3.4706  -0.9998   1.8719   H         1 1      0.0000
    28 NO      -4.6362   0.1216  -0.2490   N.pl3     1 1      0.0000
    29 ON2     -5.1404  -0.4455  -1.2869   O.2       1 1      0.0000
    30 ON1     -5.3093   0.8103   0.6030   O.2       1 1      0.0000
    31 C15      4.2887  -1.8558  -0.5808   C.3       1 1      0.0000
    32 H15C     4.9211  -1.5227  -1.4131   H         1 1      0.0000
    33 H15A     4.8322  -2.6614  -0.0781   H         1 1      0.0000
    34 H15B     3.3610  -2.2952  -0.9688   H         1 1      0.0000
@<TRIPOS>BOND
     1     1     2    1
     2     1    15    1
     3     1    16    1
     4     1    18    1
     5     2     3    1
     6     2     4    1
     7     2    14    1
     8     4     5    1
     9     4     8    2
    10     5     6    1
    11     5     7    1
    12     5    31    1
    13     8     9    1
    14     8    10    1
    15    10    11    1
    16    10    12    1
    17    10    13    1
    18    15    17    1
    19    18    19   ar
    20    18    20   ar
    21    19    21   ar
    22    19    22    1
    23    20    23   ar
    24    20    24    1
    25    21    25   ar
    26    21    26    1
    27    23    25   ar
    28    23    27    1
    29    25    28    1
    30    28    29   un
    31    28    30   un
    32    31    32    1
    33    31    33    1
    34    31    34    1
@<TRIPOS>SUBSTRUCTURE
     1 1           1 GROUP             0 ****  ****    0  
@<TRIPOS>MOLECULE
Molecule Name_00118
    34    34     1     0     0
SMALL
NO_CHARGES
****
Generated from the CSD

@<TRIPOS>ATOM
     1 C11      1.0310   0.1160   0.7830   C.3       1 1      0.0000
     2 C12      1.8668   0.3507  -0.5157   C.3       1 1      0.0000
     3 H12A     1.5630   1.3004  -0.9679   H         1 1      0.0000
     4 C13      3.3430   0.3088  -0.2236   C.2       1 1      0.0000
     5 C14      4.0120  -1.0343  -0.1795   C.3       1 1      0.0000
     6 H14A     3.9136  -1.4113   0.8502   H         1 1      0.0000
     7 H14B     5.0826  -0.8220  -0.3216   H         1 1      0.0000
     8 N        4.0430   1.3900  -0.0082   N.pl3     1 1      0.0000
     9 HN       5.0376   1.2603   0.2033   H         1 1      0.0000
    10 C        3.5838   2.8102  -0.0025   C.3       1 1      0.0000
    11 HA       4.3861   3.4260  -0.4158   H         1 1      0.0000
    12 HB       2.6897   2.9204  -0.6165   H         1 1      0.0000
    13 HC       3.3769   3.1213   1.0265   H         1 1      0.0000
    14 H12B     1.6282  -0.4514  -1.2184   H         1 1      0.0000
    15 O1       1.5810  -1.1517   1.3171   O.3       1 1      0.0000
    16 H11      1.2187   0.9255   1.4983   H         1 1      0.0000
    17 OH1      1.0566  -1.4678   2.0999   H         1 1      0.0000
    18 C10     -0.4477   0.0359   0.4651   C.ar      1 1      0.0000
    19 C5      -1.1330   1.1827   0.0300   C.ar      1 1      0.0000
    20 C9      -1.1365  -1.1757   0.6217   C.ar      1 1      0.0000
    21 C6      -2.4984   1.1234  -0.2405   C.ar      1 1      0.0000
    22 H5      -0.5973   2.1153  -0.1161   H         1 1      0.0000
    23 C8      -2.5070  -1.2430   0.3639   C.ar      1 1      0.0000
    24 H8      -0.6099  -2.0718   0.9376   H         1 1      0.0000
    25 C7      -3.1642  -0.0902  -0.0614   C.ar      1 1      0.0000
    26 H6      -3.0465   1.9921  -0.5820   H         1 1      0.0000
    27 H7      -3.0595  -2.1667   0.4787   H         1 1      0.0000
    28 NO      -4.6110  -0.1559  -0.3359   N.pl3     1 1      0.0000
    29 ON2     -5.0076   0.1267  -1.5259   O.2       1 1      0.0000
    30 ON1     -5.3903  -0.4900   0.6305   O.2       1 1      0.0000
    31 C15      3.5169  -2.0850  -1.1864   C.3       1 1      0.0000
    32 H15C     3.6850  -1.7710  -2.2241   H         1 1      0.0000
    33 H15A     4.0827  -3.0105  -1.0441   H         1 1      0.0000
    34 H15B     2.4589  -2.3359  -1.0385   H         1 1      0.0000
@<TRIPOS>BOND
     1     1     2    1
     2     1    15    1
     3     1    16    1
     4     1    18    1
     5     2     3    1
     6     2     4    1
     7     2    14    1
     8     4     5    1
     9     4     8    2
    10     5     6    1
    11     5     7    1
    12     5    31    1
    13     8     9    1
    14     8    10    1
    15    10    11    1
    16    10    12    1
    17    10    13    1
    18    15    17    1
    19    18    19   ar
    20    18    20   ar
    21    19    21   ar
    22    19    22    1
    23    20    23   ar
    24    20    24    1
    25    21    25   ar
    26    21    26    1
    27    23    25   ar
    28    23    27    1
    29    25    28    1
    30    28    29   un
    31    28    30   un
    32    31    32    1
    33    31    33    1
    34    31    34    1
@<TRIPOS>SUBSTRUCTURE
     1 1           1 GROUP             0 ****  ****    0  
@<TRIPOS>MOLECULE
Molecule Name_00119
    34    34     1     0     0
SMALL
NO_CHARGES
****
Generated from the CSD

@<TRIPOS>ATOM
     1 C11      1.1839   0.4061   1.6182   C.3       1 1      0.0000
     2 C12      2.3008  -0.3757   0.8556   C.3       1 1      0.0000
     3 H12A     2.0615  -1.4440   0.8710   H         1 1      0.0000
     4 C13      2.4662   0.1477  -0.5462   C.2       1 1      0.0000
     5 C14      2.0689  -0.7497  -1.6820   C.3       1 1      0.0000
     6 H14A     1.9787  -0.1168  -2.5784   H         1 1      0.0000
     7 H14B     1.0463  -1.0767  -1.4399   H         1 1      0.0000
     8 N        2.9408   1.3386  -0.7952   N.pl3     1 1      0.0000
     9 HN       3.0365   1.5992  -1.7820   H         1 1      0.0000
    10 C        3.3938   2.3810   0.1723   C.3       1 1      0.0000
    11 HA       2.7328   3.2451   0.0716   H         1 1      0.0000
    12 HB       3.3383   1.9993   1.1920   H         1 1      0.0000
    13 HC       4.4207   2.6762  -0.0658   H         1 1      0.0000
    14 H12B     3.2403  -0.2306   1.3943   H         1 1      0.0000
    15 O1       1.2610  -0.1439   2.9917   O.3       1 1      0.0000
    16 H11      1.4255   1.4754   1.6391   H         1 1      0.0000
    17 OH1      0.5226   0.2041   3.5586   H         1 1      0.0000
    18 C10     -0.1659   0.1909   0.9659   C.ar      1 1      0.0000
    19 C5      -0.4548   0.8058  -0.2639   C.ar      1 1      0.0000
    20 C9      -1.1330  -0.6058   1.5960   C.ar      1 1      0.0000
    21 C6      -1.7030   0.6332  -0.8583   C.ar      1 1      0.0000
    22 H5       0.3004   1.4024  -0.7658   H         1 1      0.0000
    23 C8      -2.3906  -0.7762   1.0140   C.ar      1 1      0.0000
    24 H8      -0.9103  -1.1018   2.5366   H         1 1      0.0000
    25 C7      -2.6536  -0.1513  -0.2033   C.ar      1 1      0.0000
    26 H6      -1.9466   1.0923  -1.8078   H         1 1      0.0000
    27 H7      -3.1527  -1.3857   1.4824   H         1 1      0.0000
    28 NO      -3.9795  -0.3286  -0.8226   N.pl3     1 1      0.0000
    29 ON2     -4.6867   0.7241  -1.0341   O.2       1 1      0.0000
    30 ON1     -4.3507  -1.5249  -1.1130   O.2       1 1      0.0000
    31 C15      2.9836  -1.9527  -1.9632   C.3       1 1      0.0000
    32 H15C     3.0212  -2.6475  -1.1149   H         1 1      0.0000
    33 H15A     2.5825  -2.5159  -2.8112   H         1 1      0.0000
    34 H15B     4.0000  -1.6459  -2.2405   H         1 1      0.0000
@<TRIPOS>BOND
     1     1     2    1
     2     1    15    1
     3     1    16    1
     4     1    18    1
     5     2     3    1
     6     2     4    1
     7     2    14    1
     8     4     5    1
     9     4     8    2
    10     5     6    1
    11     5     7    1
    12     5    31    1
    13     8     9    1
    14     8    10    1
    15    10    11    1
    16    10    12    1
    17    10    13    1
    18    15    17    1
    19    18    19   ar
    20    18    20   ar
    21    19    21   ar
    22    19    22    1
    23    20    23   ar
    24    20    24    1
    25    21    25   ar
    26    21    26    1
    27    23    25   ar
    28    23    27    1
    29    25    28    1
    30    28    29   un
    31    28    30   un
    32    31    32    1
    33    31    33    1
    34    31    34    1
@<TRIPOS>SUBSTRUCTURE
     1 1           1 GROUP             0 ****  ****    0  
@<TRIPOS>MOLECULE
Molecule Name_00120
    34    34     1     0     0
SMALL
NO_CHARGES
****
Generated from the CSD

@<TRIPOS>ATOM
     1 C11      1.0935  -0.5093   0.3829   C.3       1 1      0.0000
     2 C12      1.8339   0.1882  -0.8027   C.3       1 1      0.0000
     3 H12A     1.2912   1.0993  -1.0747   H         1 1      0.0000
     4 C13      3.2712   0.4678  -0.4529   C.2       1 1      0.0000
     5 C14      4.2683  -0.6378  -0.6449   C.3       1 1      0.0000
     6 H14A     5.2633  -0.1700  -0.7026   H         1 1      0.0000
     7 H14B     4.0623  -1.0330  -1.6513   H         1 1      0.0000
     8 N        3.6653   1.6245   0.0077   N.pl3     1 1      0.0000
     9 HN       4.6603   1.7140   0.2374   H         1 1      0.0000
    10 C        2.8509   2.8467   0.2740   C.3       1 1      0.0000
    11 HA       3.4622   3.7191   0.0315   H         1 1      0.0000
    12 HB       1.9559   2.8471  -0.3486   H         1 1      0.0000
    13 HC       2.5751   2.8761   1.3330   H         1 1      0.0000
    14 H12B     1.8098  -0.4897  -1.6593   H         1 1      0.0000
    15 O1       1.5380  -1.9188   0.2794   O.3       1 1      0.0000
    16 H11      1.4355  -0.0877   1.3355   H         1 1      0.0000
    17 OH1      1.0511  -2.4960   0.9256   H         1 1      0.0000
    18 C10     -0.4066  -0.3472   0.2515   C.ar      1 1      0.0000
    19 C5      -0.9485   0.2381  -0.9051   C.ar      1 1      0.0000
    20 C9      -1.2529  -0.7635   1.2894   C.ar      1 1      0.0000
    21 C6      -2.3256   0.4137  -1.0230   C.ar      1 1      0.0000
    22 H5      -0.2978   0.5382  -1.7203   H         1 1      0.0000
    23 C8      -2.6334  -0.5820   1.1858   C.ar      1 1      0.0000
    24 H8      -0.8436  -1.2360   2.1780   H         1 1      0.0000
    25 C7      -3.1451   0.0057   0.0307   C.ar      1 1      0.0000
    26 H6      -2.7665   0.8570  -1.9066   H         1 1      0.0000
    27 H7      -3.3058  -0.8947   1.9744   H         1 1      0.0000
    28 NO      -4.6019   0.1988  -0.0844   N.pl3     1 1      0.0000
    29 ON2     -5.0363   1.3996  -0.2344   O.2       1 1      0.0000
    30 ON1     -5.3516  -0.8441  -0.0262   O.2       1 1      0.0000
    31 C15      4.2625  -1.7617   0.4038   C.3       1 1      0.0000
    32 H15C     3.8125  -2.6839   0.0154   H         1 1      0.0000
    33 H15A     5.2949  -2.0059   0.6712   H         1 1      0.0000
    34 H15B     3.7587  -1.4617   1.3314   H         1 1      0.0000
@<TRIPOS>BOND
     1     1     2    1
     2     1    15    1
     3     1    16    1
     4     1    18    1
     5     2     3    1
     6     2     4    1
     7     2    14    1
     8     4     5    1
     9     4     8    2
    10     5     6    1
    11     5     7    1
    12     5    31    1
    13     8     9    1
    14     8    10    1
    15    10    11    1
    16    10    12    1
    17    10    13    1
    18    15    17    1
    19    18    19   ar
    20    18    20   ar
    21    19    21   ar
    22    19    22    1
    23    20    23   ar
    24    20    24    1
    25    21    25   ar
    26    21    26    1
    27    23    25   ar
    28    23    27    1
    29    25    28    1
    30    28    29   un
    31    28    30   un
    32    31    32    1
    33    31    33    1
    34    31    34    1
@<TRIPOS>SUBSTRUCTURE
     1 1           1 GROUP             0 ****  ****    0  
@<TRIPOS>MOLECULE
Molecule Name_00121
    34    34     1     0     0
SMALL
NO_CHARGES
****
Generated from the CSD

@<TRIPOS>ATOM
     1 C11      1.0380   0.4611  -0.7756   C.3       1 1      0.0000
     2 C12      1.8814   0.2992   0.5293   C.3       1 1      0.0000
     3 H12A     1.4129  -0.4598   1.1642   H         1 1      0.0000
     4 C13      3.3139  -0.0354   0.2092   C.2       1 1      0.0000
     5 C14      3.6507  -1.4679  -0.0873   C.3       1 1      0.0000
     6 H14A     4.7357  -1.5826   0.0601   H         1 1      0.0000
     7 H14B     3.4799  -1.5807  -1.1687   H         1 1      0.0000
     8 N        4.2542   0.8705   0.1866   N.pl3     1 1      0.0000
     9 HN       5.2034   0.5440  -0.0210   H         1 1      0.0000
    10 C        4.1416   2.3355   0.4497   C.3       1 1      0.0000
    11 HA       4.8385   2.8521  -0.2145   H         1 1      0.0000
    12 HB       3.1267   2.6785   0.2475   H         1 1      0.0000
    13 HC       4.4095   2.5394   1.4912   H         1 1      0.0000
    14 H12B     1.8579   1.2513   1.0650   H         1 1      0.0000
    15 O1       1.3351   1.8483  -1.2026   O.3       1 1      0.0000
    16 H11      1.3947  -0.2403  -1.5392   H         1 1      0.0000
    17 OH1      0.7719   2.1126  -1.9777   H         1 1      0.0000
    18 C10     -0.4324   0.2254  -0.4996   C.ar      1 1      0.0000
    19 C5      -1.0671   0.9145   0.5474   C.ar      1 1      0.0000
    20 C9      -1.1557  -0.6922  -1.2754   C.ar      1 1      0.0000
    21 C6      -2.4132   0.6847   0.8238   C.ar      1 1      0.0000
    22 H5      -0.5162   1.6435   1.1331   H         1 1      0.0000
    23 C8      -2.5021  -0.9378  -0.9996   C.ar      1 1      0.0000
    24 H8      -0.6777  -1.2136  -2.1000   H         1 1      0.0000
    25 C7      -3.1066  -0.2453   0.0476   C.ar      1 1      0.0000
    26 H6      -2.9250   1.2075   1.6215   H         1 1      0.0000
    27 H7      -3.0799  -1.6421  -1.5842   H         1 1      0.0000
    28 NO      -4.5283  -0.5000   0.3425   N.pl3     1 1      0.0000
    29 ON2     -5.3434   0.4909   0.2598   O.2       1 1      0.0000
    30 ON1     -4.8685  -1.6969   0.6664   O.2       1 1      0.0000
    31 C15      2.8840  -2.5359   0.7093   C.3       1 1      0.0000
    32 H15C     1.8054  -2.5008   0.5115   H         1 1      0.0000
    33 H15A     3.2268  -3.5275   0.3989   H         1 1      0.0000
    34 H15B     3.0688  -2.4616   1.7884   H         1 1      0.0000
@<TRIPOS>BOND
     1     1     2    1
     2     1    15    1
     3     1    16    1
     4     1    18    1
     5     2     3    1
     6     2     4    1
     7     2    14    1
     8     4     5    1
     9     4     8    2
    10     5     6    1
    11     5     7    1
    12     5    31    1
    13     8     9    1
    14     8    10    1
    15    10    11    1
    16    10    12    1
    17    10    13    1
    18    15    17    1
    19    18    19   ar
    20    18    20   ar
    21    19    21   ar
    22    19    22    1
    23    20    23   ar
    24    20    24    1
    25    21    25   ar
    26    21    26    1
    27    23    25   ar
    28    23    27    1
    29    25    28    1
    30    28    29   un
    31    28    30   un
    32    31    32    1
    33    31    33    1
    34    31    34    1
@<TRIPOS>SUBSTRUCTURE
     1 1           1 GROUP             0 ****  ****    0  
@<TRIPOS>MOLECULE
Molecule Name_00122
    34    34     1     0     0
SMALL
NO_CHARGES
****
Generated from the CSD

@<TRIPOS>ATOM
     1 C11      1.0319  -0.7076  -0.3184   C.3       1 1      0.0000
     2 C12      1.8167   0.5796   0.0906   C.3       1 1      0.0000
     3 H12A     1.4800   0.9022   1.0812   H         1 1      0.0000
     4 C13      3.3029   0.3438   0.0464   C.2       1 1      0.0000
     5 C14      3.8503  -0.8295   0.8059   C.3       1 1      0.0000
     6 H14A     4.8806  -0.9915   0.4530   H         1 1      0.0000
     7 H14B     3.2700  -1.6937   0.4485   H         1 1      0.0000
     8 N        4.1135   1.1209  -0.6203   N.pl3     1 1      0.0000
     9 HN       5.1118   0.8929  -0.5744   H         1 1      0.0000
    10 C        3.7861   2.3292  -1.4331   C.3       1 1      0.0000
    11 HA       4.5597   2.4425  -2.1962   H         1 1      0.0000
    12 HB       2.8161   2.2080  -1.9158   H         1 1      0.0000
    13 HC       3.7788   3.2118  -0.7856   H         1 1      0.0000
    14 H12B     1.5678   1.3667  -0.6253   H         1 1      0.0000
    15 O1       1.4386  -0.9207  -1.7270   O.3       1 1      0.0000
    16 H11      1.3654  -1.5565   0.2902   H         1 1      0.0000
    17 OH1      1.0187  -1.7404  -2.1007   H         1 1      0.0000
    18 C10     -0.4599  -0.5044  -0.1539   C.ar      1 1      0.0000
    19 C5      -1.3449  -0.9978  -1.1272   C.ar      1 1      0.0000
    20 C9      -0.9569   0.1905   0.9583   C.ar      1 1      0.0000
    21 C6      -2.7167  -0.7931  -0.9959   C.ar      1 1      0.0000
    22 H5      -0.9649  -1.5575  -1.9759   H         1 1      0.0000
    23 C8      -2.3290   0.4104   1.0936   C.ar      1 1      0.0000
    24 H8      -0.2811   0.5570   1.7259   H         1 1      0.0000
    25 C7      -3.1849  -0.0845   0.1117   C.ar      1 1      0.0000
    26 H6      -3.4182  -1.1685  -1.7299   H         1 1      0.0000
    27 H7      -2.7352   0.9448   1.9428   H         1 1      0.0000
    28 NO      -4.6346   0.1439   0.2501   N.pl3     1 1      0.0000
    29 ON2     -5.3986  -0.8876   0.3235   O.2       1 1      0.0000
    30 ON1     -5.0492   1.3604   0.2875   O.2       1 1      0.0000
    31 C15      3.8161  -0.7350   2.3399   C.3       1 1      0.0000
    32 H15C     2.7912  -0.6618   2.7244   H         1 1      0.0000
    33 H15A     4.2447  -1.6482   2.7636   H         1 1      0.0000
    34 H15B     4.4180   0.1010   2.7181   H         1 1      0.0000
@<TRIPOS>BOND
     1     1     2    1
     2     1    15    1
     3     1    16    1
     4     1    18    1
     5     2     3    1
     6     2     4    1
     7     2    14    1
     8     4     5    1
     9     4     8    2
    10     5     6    1
    11     5     7    1
    12     5    31    1
    13     8     9    1
    14     8    10    1
    15    10    11    1
    16    10    12    1
    17    10    13    1
    18    15    17    1
    19    18    19   ar
    20    18    20   ar
    21    19    21   ar
    22    19    22    1
    23    20    23   ar
    24    20    24    1
    25    21    25   ar
    26    21    26    1
    27    23    25   ar
    28    23    27    1
    29    25    28    1
    30    28    29   un
    31    28    30   un
    32    31    32    1
    33    31    33    1
    34    31    34    1
@<TRIPOS>SUBSTRUCTURE
     1 1           1 GROUP             0 ****  ****    0  
@<TRIPOS>MOLECULE
Molecule Name_00123
    34    34     1     0     0
SMALL
NO_CHARGES
****
Generated from the CSD

@<TRIPOS>ATOM
     1 C11      1.0722  -0.5871  -0.0135   C.3       1 1      0.0000
     2 C12      1.7782   0.7769   0.2720   C.3       1 1      0.0000
     3 H12A     1.3738   1.2004   1.1971   H         1 1      0.0000
     4 C13      3.2732   0.6099   0.3314   C.2       1 1      0.0000
     5 C14      3.8258  -0.4459   1.2441   C.3       1 1      0.0000
     6 H14A     3.3070  -0.3430   2.2098   H         1 1      0.0000
     7 H14B     4.8680  -0.1435   1.4283   H         1 1      0.0000
     8 N        4.0867   1.3482  -0.3747   N.pl3     1 1      0.0000
     9 HN       5.0895   1.1752  -0.2520   H         1 1      0.0000
    10 C        3.7550   2.4437  -1.3328   C.3       1 1      0.0000
    11 HA       4.6835   2.9575  -1.5925   H         1 1      0.0000
    12 HB       3.3041   2.0317  -2.2359   H         1 1      0.0000
    13 HC       3.0679   3.1491  -0.8547   H         1 1      0.0000
    14 H12B     1.5365   1.4584  -0.5473   H         1 1      0.0000
    15 O1       1.5865  -0.9628  -1.3511   O.3       1 1      0.0000
    16 H11      1.3918  -1.3334   0.7234   H         1 1      0.0000
    17 OH1      1.5868  -1.9495  -1.4703   H         1 1      0.0000
    18 C10     -0.4340  -0.4323   0.0231   C.ar      1 1      0.0000
    19 C5      -1.2286  -1.0927  -0.9289   C.ar      1 1      0.0000
    20 C9      -1.0342   0.3827   0.9939   C.ar      1 1      0.0000
    21 C6      -2.6129  -0.9356  -0.9175   C.ar      1 1      0.0000
    22 H5      -0.7688  -1.7438  -1.6656   H         1 1      0.0000
    23 C8      -2.4195   0.5555   1.0072   C.ar      1 1      0.0000
    24 H8      -0.4287   0.8801   1.7464   H         1 1      0.0000
    25 C7      -3.1845  -0.1063   0.0488   C.ar      1 1      0.0000
    26 H6      -3.2460  -1.4384  -1.6372   H         1 1      0.0000
    27 H7      -2.9046   1.1803   1.7462   H         1 1      0.0000
    28 NO      -4.6478   0.0719   0.0588   N.pl3     1 1      0.0000
    29 ON2     -5.1975   0.5663  -0.9930   O.2       1 1      0.0000
    30 ON1     -5.2870  -0.2760   1.1188   O.2       1 1      0.0000
    31 C15      3.7499  -1.8978   0.7451   C.3       1 1      0.0000
    32 H15C     3.6088  -1.9521  -0.3416   H         1 1      0.0000
    33 H15A     4.6971  -2.4003   0.9629   H         1 1      0.0000
    34 H15B     2.9643  -2.4712   1.2532   H         1 1      0.0000
@<TRIPOS>BOND
     1     1     2    1
     2     1    15    1
     3     1    16    1
     4     1    18    1
     5     2     3    1
     6     2     4    1
     7     2    14    1
     8     4     5    1
     9     4     8    2
    10     5     6    1
    11     5     7    1
    12     5    31    1
    13     8     9    1
    14     8    10    1
    15    10    11    1
    16    10    12    1
    17    10    13    1
    18    15    17    1
    19    18    19   ar
    20    18    20   ar
    21    19    21   ar
    22    19    22    1
    23    20    23   ar
    24    20    24    1
    25    21    25   ar
    26    21    26    1
    27    23    25   ar
    28    23    27    1
    29    25    28    1
    30    28    29   un
    31    28    30   un
    32    31    32    1
    33    31    33    1
    34    31    34    1
@<TRIPOS>SUBSTRUCTURE
     1 1           1 GROUP             0 ****  ****    0  
@<TRIPOS>MOLECULE
Molecule Name_00124
    34    34     1     0     0
SMALL
NO_CHARGES
****
Generated from the CSD

@<TRIPOS>ATOM
     1 C11      0.9255   0.6990  -0.3675   C.3       1 1      0.0000
     2 C12      1.7612  -0.3449   0.4400   C.3       1 1      0.0000
     3 H12A     1.3045  -1.3332   0.3239   H         1 1      0.0000
     4 C13      3.2035  -0.3331   0.0088   C.2       1 1      0.0000
     5 C14      3.5752  -1.1111  -1.2199   C.3       1 1      0.0000
     6 H14A     3.4153  -0.4477  -2.0839   H         1 1      0.0000
     7 H14B     2.8099  -1.8982  -1.2988   H         1 1      0.0000
     8 N        4.1232   0.3214   0.6655   N.pl3     1 1      0.0000
     9 HN       5.0813   0.2533   0.3075   H         1 1      0.0000
    10 C        3.9752   1.1483   1.8993   C.3       1 1      0.0000
    11 HA       4.6657   1.9918   1.8252   H         1 1      0.0000
    12 HB       2.9545   1.5221   1.9832   H         1 1      0.0000
    13 HC       4.2297   0.5431   2.7752   H         1 1      0.0000
    14 H12B     1.7117  -0.0703   1.4965   H         1 1      0.0000
    15 O1       1.3315   1.9934   0.2277   O.3       1 1      0.0000
    16 H11      1.2193   0.6747  -1.4236   H         1 1      0.0000
    17 OH1      0.7868   2.7411  -0.1356   H         1 1      0.0000
    18 C10     -0.5574   0.4216  -0.2340   C.ar      1 1      0.0000
    19 C5      -1.0040  -0.5996   0.6214   C.ar      1 1      0.0000
    20 C9      -1.4828   1.1699  -0.9760   C.ar      1 1      0.0000
    21 C6      -2.3648  -0.8777   0.7308   C.ar      1 1      0.0000
    22 H5      -0.2919  -1.1634   1.2155   H         1 1      0.0000
    23 C8      -2.8478   0.8918  -0.8818   C.ar      1 1      0.0000
    24 H8      -1.1473   1.9750  -1.6237   H         1 1      0.0000
    25 C7      -3.2643  -0.1295  -0.0303   C.ar      1 1      0.0000
    26 H6      -2.7330  -1.6558   1.3871   H         1 1      0.0000
    27 H7      -3.5801   1.4555  -1.4455   H         1 1      0.0000
    28 NO      -4.7044  -0.4267   0.0736   N.pl3     1 1      0.0000
    29 ON2     -5.0956  -1.6098  -0.2433   O.2       1 1      0.0000
    30 ON1     -5.4837   0.5146   0.4733   O.2       1 1      0.0000
    31 C15      4.9909  -1.7090  -1.2559   C.3       1 1      0.0000
    32 H15C     5.1478  -2.4424  -0.4552   H         1 1      0.0000
    33 H15A     5.1291  -2.2431  -2.2007   H         1 1      0.0000
    34 H15B     5.7692  -0.9366  -1.2131   H         1 1      0.0000
@<TRIPOS>BOND
     1     1     2    1
     2     1    15    1
     3     1    16    1
     4     1    18    1
     5     2     3    1
     6     2     4    1
     7     2    14    1
     8     4     5    1
     9     4     8    2
    10     5     6    1
    11     5     7    1
    12     5    31    1
    13     8     9    1
    14     8    10    1
    15    10    11    1
    16    10    12    1
    17    10    13    1
    18    15    17    1
    19    18    19   ar
    20    18    20   ar
    21    19    21   ar
    22    19    22    1
    23    20    23   ar
    24    20    24    1
    25    21    25   ar
    26    21    26    1
    27    23    25   ar
    28    23    27    1
    29    25    28    1
    30    28    29   un
    31    28    30   un
    32    31    32    1
    33    31    33    1
    34    31    34    1
@<TRIPOS>SUBSTRUCTURE
     1 1           1 GROUP             0 ****  ****    0  
@<TRIPOS>MOLECULE
Molecule Name_00125
    34    34     1     0     0
SMALL
NO_CHARGES
****
Generated from the CSD

@<TRIPOS>ATOM
     1 C11      1.0623   0.5934  -0.3598   C.3       1 1      0.0000
     2 C12      1.8383  -0.1738   0.7580   C.3       1 1      0.0000
     3 H12A     1.3334  -1.1255   0.9529   H         1 1      0.0000
     4 C13      3.2826  -0.3659   0.3792   C.2       1 1      0.0000
     5 C14      3.6276  -1.5282  -0.5058   C.3       1 1      0.0000
     6 H14A     3.1847  -2.4263  -0.0481   H         1 1      0.0000
     7 H14B     4.7174  -1.6457  -0.4067   H         1 1      0.0000
     8 N        4.2260   0.4354   0.7955   N.pl3     1 1      0.0000
     9 HN       5.1825   0.2122   0.5023   H         1 1      0.0000
    10 C        4.1067   1.6365   1.6736   C.3       1 1      0.0000
    11 HA       4.8259   2.3817   1.3257   H         1 1      0.0000
    12 HB       3.0995   2.0495   1.6136   H         1 1      0.0000
    13 HC       4.3400   1.3568   2.7059   H         1 1      0.0000
    14 H12B     1.7946   0.4264   1.6700   H         1 1      0.0000
    15 O1       1.4036   2.0112  -0.0989   O.3       1 1      0.0000
    16 H11      1.4436   0.3016  -1.3455   H         1 1      0.0000
    17 OH1      0.9687   2.6118  -0.7607   H         1 1      0.0000
    18 C10     -0.4236   0.3134  -0.2736   C.ar      1 1      0.0000
    19 C5      -1.3432   1.3675  -0.4051   C.ar      1 1      0.0000
    20 C9      -0.8814  -0.9924  -0.0449   C.ar      1 1      0.0000
    21 C6      -2.7107   1.1221  -0.3021   C.ar      1 1      0.0000
    22 H5      -0.9926   2.3746  -0.6071   H         1 1      0.0000
    23 C8      -2.2493  -1.2471   0.0710   C.ar      1 1      0.0000
    24 H8      -0.1780  -1.8163   0.0371   H         1 1      0.0000
    25 C7      -3.1401  -0.1834  -0.0581   C.ar      1 1      0.0000
    26 H6      -3.4382   1.9170  -0.4053   H         1 1      0.0000
    27 H7      -2.6256  -2.2464   0.2483   H         1 1      0.0000
    28 NO      -4.5855  -0.4468   0.0623   N.pl3     1 1      0.0000
    29 ON2     -5.3309  -0.1665  -0.9471   O.2       1 1      0.0000
    30 ON1     -5.0151  -0.9393   1.1696   O.2       1 1      0.0000
    31 C15      3.2140  -1.4176  -1.9822   C.3       1 1      0.0000
    32 H15C     3.6640  -0.5445  -2.4708   H         1 1      0.0000
    33 H15A     3.5754  -2.2985  -2.5213   H         1 1      0.0000
    34 H15B     2.1241  -1.3960  -2.1078   H         1 1      0.0000
@<TRIPOS>BOND
     1     1     2    1
     2     1    15    1
     3     1    16    1
     4     1    18    1
     5     2     3    1
     6     2     4    1
     7     2    14    1
     8     4     5    1
     9     4     8    2
    10     5     6    1
    11     5     7    1
    12     5    31    1
    13     8     9    1
    14     8    10    1
    15    10    11    1
    16    10    12    1
    17    10    13    1
    18    15    17    1
    19    18    19   ar
    20    18    20   ar
    21    19    21   ar
    22    19    22    1
    23    20    23   ar
    24    20    24    1
    25    21    25   ar
    26    21    26    1
    27    23    25   ar
    28    23    27    1
    29    25    28    1
    30    28    29   un
    31    28    30   un
    32    31    32    1
    33    31    33    1
    34    31    34    1
@<TRIPOS>SUBSTRUCTURE
     1 1           1 GROUP             0 ****  ****    0  
@<TRIPOS>MOLECULE
Molecule Name_00126
    34    34     1     0     0
SMALL
NO_CHARGES
****
Generated from the CSD

@<TRIPOS>ATOM
     1 C11      0.9678  -0.6651   0.5089   C.3       1 1      0.0000
     2 C12      1.7643  -0.0665  -0.6942   C.3       1 1      0.0000
     3 H12A     1.2469   0.8289  -1.0536   H         1 1      0.0000
     4 C13      3.1912   0.2199  -0.3091   C.2       1 1      0.0000
     5 C14      3.9833  -0.8874   0.3232   C.3       1 1      0.0000
     6 H14A     3.9451  -1.7464  -0.3644   H         1 1      0.0000
     7 H14B     3.3995  -1.1835   1.2080   H         1 1      0.0000
     8 N        3.7464   1.3857  -0.5041   N.pl3     1 1      0.0000
     9 HN       4.7163   1.4922  -0.1900   H         1 1      0.0000
    10 C        3.1476   2.6124  -1.1079   C.3       1 1      0.0000
    11 HA       3.9269   3.1221  -1.6794   H         1 1      0.0000
    12 HB       2.3273   2.3435  -1.7739   H         1 1      0.0000
    13 HC       2.7879   3.2713  -0.3113   H         1 1      0.0000
    14 H12B     1.7628  -0.8054  -1.4992   H         1 1      0.0000
    15 O1       1.3104  -2.1056   0.4606   O.3       1 1      0.0000
    16 H11      1.3329  -0.2343   1.4487   H         1 1      0.0000
    17 OH1      0.8765  -2.6019   1.2045   H         1 1      0.0000
    18 C10     -0.5159  -0.4008   0.3578   C.ar      1 1      0.0000
    19 C5      -1.4398  -1.4256   0.6227   C.ar      1 1      0.0000
    20 C9      -0.9669   0.8587  -0.0631   C.ar      1 1      0.0000
    21 C6      -2.8048  -1.1980   0.4620   C.ar      1 1      0.0000
    22 H5      -1.0949  -2.3934   0.9726   H         1 1      0.0000
    23 C8      -2.3320   1.0937  -0.2378   C.ar      1 1      0.0000
    24 H8      -0.2605   1.6627  -0.2498   H         1 1      0.0000
    25 C7      -3.2272   0.0591   0.0266   C.ar      1 1      0.0000
    26 H6      -3.5356  -1.9702   0.6652   H         1 1      0.0000
    27 H7      -2.7031   2.0573  -0.5626   H         1 1      0.0000
    28 NO      -4.6697   0.3020  -0.1553   N.pl3     1 1      0.0000
    29 ON2     -5.2985  -0.4345  -1.0010   O.2       1 1      0.0000
    30 ON1     -5.2130   1.2365   0.5408   O.2       1 1      0.0000
    31 C15      5.4382  -0.5658   0.7015   C.3       1 1      0.0000
    32 H15C     5.5009   0.2296   1.4545   H         1 1      0.0000
    33 H15A     5.8963  -1.4543   1.1462   H         1 1      0.0000
    34 H15B     6.0460  -0.3015  -0.1731   H         1 1      0.0000
@<TRIPOS>BOND
     1     1     2    1
     2     1    15    1
     3     1    16    1
     4     1    18    1
     5     2     3    1
     6     2     4    1
     7     2    14    1
     8     4     5    1
     9     4     8    2
    10     5     6    1
    11     5     7    1
    12     5    31    1
    13     8     9    1
    14     8    10    1
    15    10    11    1
    16    10    12    1
    17    10    13    1
    18    15    17    1
    19    18    19   ar
    20    18    20   ar
    21    19    21   ar
    22    19    22    1
    23    20    23   ar
    24    20    24    1
    25    21    25   ar
    26    21    26    1
    27    23    25   ar
    28    23    27    1
    29    25    28    1
    30    28    29   un
    31    28    30   un
    32    31    32    1
    33    31    33    1
    34    31    34    1
@<TRIPOS>SUBSTRUCTURE
     1 1           1 GROUP             0 ****  ****    0  
@<TRIPOS>MOLECULE
Molecule Name_00127
    34    34     1     0     0
SMALL
NO_CHARGES
****
Generated from the CSD

@<TRIPOS>ATOM
     1 C11      1.0725  -0.4567  -0.3526   C.3       1 1      0.0000
     2 C12      1.7809   0.7586   0.3266   C.3       1 1      0.0000
     3 H12A     1.2853   0.9729   1.2791   H         1 1      0.0000
     4 C13      3.2535   0.4983   0.5001   C.2       1 1      0.0000
     5 C14      3.6655  -0.7674   1.1941   C.3       1 1      0.0000
     6 H14A     3.0242  -0.8728   2.0828   H         1 1      0.0000
     7 H14B     4.6778  -0.5643   1.5755   H         1 1      0.0000
     8 N        4.1647   1.3309   0.0736   N.pl3     1 1      0.0000
     9 HN       5.1412   1.0780   0.2559   H         1 1      0.0000
    10 C        3.9785   2.6329  -0.6320   C.3       1 1      0.0000
    11 HA       4.7867   3.3014  -0.3259   H         1 1      0.0000
    12 HB       4.0189   2.4864  -1.7116   H         1 1      0.0000
    13 HC       3.0157   3.0676  -0.3450   H         1 1      0.0000
    14 H12B     1.6555   1.6274  -0.3241   H         1 1      0.0000
    15 O1       1.5482  -0.3880  -1.7539   O.3       1 1      0.0000
    16 H11      1.4170  -1.3919   0.1045   H         1 1      0.0000
    17 OH1      1.0833  -1.0572  -2.3230   H         1 1      0.0000
    18 C10     -0.4326  -0.3413  -0.2286   C.ar      1 1      0.0000
    19 C5      -1.0003   0.7967   0.3686   C.ar      1 1      0.0000
    20 C9      -1.2582  -1.3758  -0.6925   C.ar      1 1      0.0000
    21 C6      -2.3826   0.8992   0.5091   C.ar      1 1      0.0000
    22 H5      -0.3651   1.6097   0.7057   H         1 1      0.0000
    23 C8      -2.6439  -1.2877  -0.5465   C.ar      1 1      0.0000
    24 H8      -0.8284  -2.2495  -1.1743   H         1 1      0.0000
    25 C7      -3.1815  -0.1510   0.0540   C.ar      1 1      0.0000
    26 H6      -2.8432   1.7684   0.9609   H         1 1      0.0000
    27 H7      -3.3006  -2.0740  -0.8960   H         1 1      0.0000
    28 NO      -4.6440  -0.0524   0.2097   N.pl3     1 1      0.0000
    29 ON2     -5.2420   0.9298  -0.3654   O.2       1 1      0.0000
    30 ON1     -5.2344  -0.9528   0.9124   O.2       1 1      0.0000
    31 C15      3.6373  -2.0549   0.3549   C.3       1 1      0.0000
    32 H15C     3.2786  -1.8725  -0.6658   H         1 1      0.0000
    33 H15A     4.6558  -2.4441   0.2636   H         1 1      0.0000
    34 H15B     3.0387  -2.8448   0.8259   H         1 1      0.0000
@<TRIPOS>BOND
     1     1     2    1
     2     1    15    1
     3     1    16    1
     4     1    18    1
     5     2     3    1
     6     2     4    1
     7     2    14    1
     8     4     5    1
     9     4     8    2
    10     5     6    1
    11     5     7    1
    12     5    31    1
    13     8     9    1
    14     8    10    1
    15    10    11    1
    16    10    12    1
    17    10    13    1
    18    15    17    1
    19    18    19   ar
    20    18    20   ar
    21    19    21   ar
    22    19    22    1
    23    20    23   ar
    24    20    24    1
    25    21    25   ar
    26    21    26    1
    27    23    25   ar
    28    23    27    1
    29    25    28    1
    30    28    29   un
    31    28    30   un
    32    31    32    1
    33    31    33    1
    34    31    34    1
@<TRIPOS>SUBSTRUCTURE
     1 1           1 GROUP             0 ****  ****    0  
@<TRIPOS>MOLECULE
Molecule Name_00128
    34    34     1     0     0
SMALL
NO_CHARGES
****
Generated from the CSD

@<TRIPOS>ATOM
     1 C11      1.0614   0.0834  -0.8376   C.3       1 1      0.0000
     2 C12      1.8870   0.5848   0.3901   C.3       1 1      0.0000
     3 H12A     1.4232   0.2098   1.3082   H         1 1      0.0000
     4 C13      3.3305   0.1731   0.2754   C.2       1 1      0.0000
     5 C14      3.6297  -1.2788   0.0389   C.3       1 1      0.0000
     6 H14A     4.6760  -1.4466   0.3378   H         1 1      0.0000
     7 H14B     3.6060  -1.3980  -1.0550   H         1 1      0.0000
     8 N        4.3110   1.0296   0.3779   N.pl3     1 1      0.0000
     9 HN       5.2615   0.6522   0.3071   H         1 1      0.0000
    10 C        4.2400   2.5019   0.6123   C.3       1 1      0.0000
    11 HA       5.1386   2.9551   0.1872   H         1 1      0.0000
    12 HB       3.3585   2.9197   0.1252   H         1 1      0.0000
    13 HC       4.2058   2.6974   1.6888   H         1 1      0.0000
    14 H12B     1.8367   1.6762   0.4059   H         1 1      0.0000
    15 O1       1.3435   1.1017  -1.8760   O.3       1 1      0.0000
    16 H11      1.4405  -0.8906  -1.1689   H         1 1      0.0000
    17 OH1      0.7883   0.9501  -2.6862   H         1 1      0.0000
    18 C10     -0.4093  -0.0217  -0.4912   C.ar      1 1      0.0000
    19 C5      -0.9593  -1.2673  -0.1447   C.ar      1 1      0.0000
    20 C9      -1.2254   1.1180  -0.5335   C.ar      1 1      0.0000
    21 C6      -2.3164  -1.3770   0.1509   C.ar      1 1      0.0000
    22 H5      -0.3250  -2.1461  -0.0868   H         1 1      0.0000
    23 C8      -2.5887   1.0168  -0.2498   C.ar      1 1      0.0000
    24 H8      -0.8039   2.0885  -0.7801   H         1 1      0.0000
    25 C7      -3.1103  -0.2309   0.0859   C.ar      1 1      0.0000
    26 H6      -2.7614  -2.3246   0.4257   H         1 1      0.0000
    27 H7      -3.2380   1.8825  -0.2771   H         1 1      0.0000
    28 NO      -4.5489  -0.3433   0.3874   N.pl3     1 1      0.0000
    29 ON2     -5.2545  -1.1285  -0.3466   O.2       1 1      0.0000
    30 ON1     -5.0129   0.3514   1.3648   O.2       1 1      0.0000
    31 C15      2.7042  -2.2949   0.7274   C.3       1 1      0.0000
    32 H15C     1.6672  -2.2075   0.3801   H         1 1      0.0000
    33 H15A     3.0344  -3.3070   0.4750   H         1 1      0.0000
    34 H15B     2.7401  -2.2148   1.8213   H         1 1      0.0000
@<TRIPOS>BOND
     1     1     2    1
     2     1    15    1
     3     1    16    1
     4     1    18    1
     5     2     3    1
     6     2     4    1
     7     2    14    1
     8     4     5    1
     9     4     8    2
    10     5     6    1
    11     5     7    1
    12     5    31    1
    13     8     9    1
    14     8    10    1
    15    10    11    1
    16    10    12    1
    17    10    13    1
    18    15    17    1
    19    18    19   ar
    20    18    20   ar
    21    19    21   ar
    22    19    22    1
    23    20    23   ar
    24    20    24    1
    25    21    25   ar
    26    21    26    1
    27    23    25   ar
    28    23    27    1
    29    25    28    1
    30    28    29   un
    31    28    30   un
    32    31    32    1
    33    31    33    1
    34    31    34    1
@<TRIPOS>SUBSTRUCTURE
     1 1           1 GROUP             0 ****  ****    0  
@<TRIPOS>MOLECULE
Molecule Name_00129
    34    34     1     0     0
SMALL
NO_CHARGES
****
Generated from the CSD

@<TRIPOS>ATOM
     1 C11      0.9432  -0.4273  -0.6683   C.3       1 1      0.0000
     2 C12      1.7438   0.5723   0.2262   C.3       1 1      0.0000
     3 H12A     1.2904   0.6005   1.2223   H         1 1      0.0000
     4 C13      3.2023   0.2029   0.2778   C.2       1 1      0.0000
     5 C14      3.5567  -1.2053   0.6586   C.3       1 1      0.0000
     6 H14A     3.5406  -1.8042  -0.2651   H         1 1      0.0000
     7 H14B     2.7060  -1.5580   1.2613   H         1 1      0.0000
     8 N        4.1497   1.0604   0.0084   N.pl3     1 1      0.0000
     9 HN       5.1139   0.7224   0.0906   H         1 1      0.0000
    10 C        4.0225   2.4946  -0.3849   C.3       1 1      0.0000
    11 HA       4.9043   2.7632  -0.9714   H         1 1      0.0000
    12 HB       3.1269   2.6426  -0.9888   H         1 1      0.0000
    13 HC       3.9787   3.1159   0.5153   H         1 1      0.0000
    14 H12B     1.6523   1.5671  -0.2166   H         1 1      0.0000
    15 O1       1.3310  -0.0382  -2.0442   O.3       1 1      0.0000
    16 H11      1.2767  -1.4530  -0.4713   H         1 1      0.0000
    17 OH1      0.8031  -0.5401  -2.7204   H         1 1      0.0000
    18 C10     -0.5447  -0.3064  -0.4127   C.ar      1 1      0.0000
    19 C5      -1.0271   0.6866   0.4564   C.ar      1 1      0.0000
    20 C9      -1.4388  -1.1948  -1.0277   C.ar      1 1      0.0000
    21 C6      -2.3920   0.7884   0.7163   C.ar      1 1      0.0000
    22 H5      -0.3399   1.3912   0.9140   H         1 1      0.0000
    23 C8      -2.8074  -1.1082  -0.7654   C.ar      1 1      0.0000
    24 H8      -1.0761  -1.9520  -1.7172   H         1 1      0.0000
    25 C7      -3.2594  -0.1179   0.1045   C.ar      1 1      0.0000
    26 H6      -2.7875   1.5485   1.3778   H         1 1      0.0000
    27 H7      -3.5158  -1.7835  -1.2277   H         1 1      0.0000
    28 NO      -4.7035  -0.0213   0.3843   N.pl3     1 1      0.0000
    29 ON2     -5.2997   1.0765   0.0804   O.2       1 1      0.0000
    30 ON1     -5.2806  -1.0394   0.9168   O.2       1 1      0.0000
    31 C15      4.8855  -1.4043   1.4053   C.3       1 1      0.0000
    32 H15C     4.8942  -0.8883   2.3735   H         1 1      0.0000
    33 H15A     5.0200  -2.4693   1.6173   H         1 1      0.0000
    34 H15B     5.7496  -1.0901   0.8064   H         1 1      0.0000
@<TRIPOS>BOND
     1     1     2    1
     2     1    15    1
     3     1    16    1
     4     1    18    1
     5     2     3    1
     6     2     4    1
     7     2    14    1
     8     4     5    1
     9     4     8    2
    10     5     6    1
    11     5     7    1
    12     5    31    1
    13     8     9    1
    14     8    10    1
    15    10    11    1
    16    10    12    1
    17    10    13    1
    18    15    17    1
    19    18    19   ar
    20    18    20   ar
    21    19    21   ar
    22    19    22    1
    23    20    23   ar
    24    20    24    1
    25    21    25   ar
    26    21    26    1
    27    23    25   ar
    28    23    27    1
    29    25    28    1
    30    28    29   un
    31    28    30   un
    32    31    32    1
    33    31    33    1
    34    31    34    1
@<TRIPOS>SUBSTRUCTURE
     1 1           1 GROUP             0 ****  ****    0  
@<TRIPOS>MOLECULE
Molecule Name_00130
    34    34     1     0     0
SMALL
NO_CHARGES
****
Generated from the CSD

@<TRIPOS>ATOM
     1 C11      0.9944  -0.7814   0.2585   C.3       1 1      0.0000
     2 C12      1.7776   0.0829  -0.7806   C.3       1 1      0.0000
     3 H12A     1.2477   1.0296  -0.9278   H         1 1      0.0000
     4 C13      3.2029   0.2933  -0.3441   C.2       1 1      0.0000
     5 C14      4.0307  -0.9216  -0.0406   C.3       1 1      0.0000
     6 H14A     4.4374  -1.2836  -0.9975   H         1 1      0.0000
     7 H14B     3.3064  -1.6830   0.2864   H         1 1      0.0000
     8 N        3.7272   1.4831  -0.2217   N.pl3     1 1      0.0000
     9 HN       4.6989   1.5272   0.1016   H         1 1      0.0000
    10 C        3.0903   2.8105  -0.4672   C.3       1 1      0.0000
    11 HA       3.8486   3.4764  -0.8860   H         1 1      0.0000
    12 HB       2.2668   2.7092  -1.1744   H         1 1      0.0000
    13 HC       2.7269   3.2202   0.4806   H         1 1      0.0000
    14 H12B     1.7808  -0.4556  -1.7314   H         1 1      0.0000
    15 O1       1.3486  -2.1697  -0.1180   O.3       1 1      0.0000
    16 H11      1.3624  -0.5722   1.2700   H         1 1      0.0000
    17 OH1      0.8260  -2.8287   0.4116   H         1 1      0.0000
    18 C10     -0.4924  -0.5040   0.1786   C.ar      1 1      0.0000
    19 C5      -1.0010   0.2912  -0.8620   C.ar      1 1      0.0000
    20 C9      -1.3585  -1.0245   1.1512   C.ar      1 1      0.0000
    21 C6      -2.3641   0.5717  -0.9283   C.ar      1 1      0.0000
    22 H5      -0.3365   0.6744  -1.6299   H         1 1      0.0000
    23 C8      -2.7245  -0.7402   1.1000   C.ar      1 1      0.0000
    24 H8      -0.9763  -1.6574   1.9472   H         1 1      0.0000
    25 C7      -3.2027   0.0553   0.0607   C.ar      1 1      0.0000
    26 H6      -2.7797   1.1773  -1.7235   H         1 1      0.0000
    27 H7      -3.4116  -1.1300   1.8400   H         1 1      0.0000
    28 NO      -4.6442   0.3578   0.0012   N.pl3     1 1      0.0000
    29 ON2     -5.2927  -0.0218  -1.0421   O.2       1 1      0.0000
    30 ON1     -5.1671   0.9844   0.9948   O.2       1 1      0.0000
    31 C15      5.1570  -0.7487   0.9913   C.3       1 1      0.0000
    32 H15C     4.7697  -0.4733   1.9802   H         1 1      0.0000
    33 H15A     5.6783  -1.7028   1.1141   H         1 1      0.0000
    34 H15B     5.9086  -0.0178   0.6673   H         1 1      0.0000
@<TRIPOS>BOND
     1     1     2    1
     2     1    15    1
     3     1    16    1
     4     1    18    1
     5     2     3    1
     6     2     4    1
     7     2    14    1
     8     4     5    1
     9     4     8    2
    10     5     6    1
    11     5     7    1
    12     5    31    1
    13     8     9    1
    14     8    10    1
    15    10    11    1
    16    10    12    1
    17    10    13    1
    18    15    17    1
    19    18    19   ar
    20    18    20   ar
    21    19    21   ar
    22    19    22    1
    23    20    23   ar
    24    20    24    1
    25    21    25   ar
    26    21    26    1
    27    23    25   ar
    28    23    27    1
    29    25    28    1
    30    28    29   un
    31    28    30   un
    32    31    32    1
    33    31    33    1
    34    31    34    1
@<TRIPOS>SUBSTRUCTURE
     1 1           1 GROUP             0 ****  ****    0  
