# created with PyMOL 2.3.4
@<TRIPOS>MOLECULE
Molecule Name
28 28 1                 
SMALL
USER_CHARGES
@<TRIPOS>ATOM
1	 ON1	-5.433	0.894	-0.302	O.2	1	RES1	0.000	
2	 ON2	-5.188	-1.364	-0.441	O.2	1	RES1	0.000	
3	  O1	1.502	-0.646	1.529	O.3	1	RES1	0.000	
4	  C5	-1.113	-1.045	0.221	C.2	1	RES1	0.000	
5	  C6	-2.482	-1.185	0.004	C.2	1	RES1	0.000	
6	  C7	-3.275	-0.036	-0.034	C.2	1	RES1	0.000	
7	  C8	-2.745	1.239	0.153	C.2	1	RES1	0.000	
8	  C9	-1.373	1.367	0.380	C.2	1	RES1	0.000	
9	 C10	-0.553	0.230	0.406	C.2	1	RES1	0.000	
10	 C11	0.940	0.375	0.614	C.3	1	RES1	0.000	
11	 C12	1.714	0.126	-0.720	C.3	1	RES1	0.000	
12	 C13	3.187	-0.056	-0.465	C.2	1	RES1	0.000	
13	 C14	3.725	-1.457	-0.427	C.3	1	RES1	0.000	
14	 C15	5.232	-1.610	-0.166	C.3	1	RES1	0.000	
15	  NO	-4.722	-0.177	-0.273	N.pl3	1	RES1	0.000	
16	 OH1	1.013	-0.660	2.394	 H	1	RES1	0.000	
17	  H5	-0.484	-1.929	0.265	 H	1	RES1	0.000	
18	  H6	-2.937	-2.157	-0.136	 H	1	RES1	0.000	
19	  H7	-3.397	2.102	0.128	 H	1	RES1	0.000	
20	  H8	-0.951	2.355	0.544	 H	1	RES1	0.000	
21	 H11	1.171	1.375	0.998	 H	1	RES1	0.000	
22	H12A	1.514	0.954	-1.407	 H	1	RES1	0.000	
23	H12B	1.323	-0.790	-1.169	 H	1	RES1	0.000	
24	H14A	3.448	-1.936	-1.379	 H	1	RES1	0.000	
25	H14B	3.134	-1.966	0.350	 H	1	RES1	0.000	
26	H15A	5.488	-2.674	-0.168	 H	1	RES1	0.000	
27	H15B	5.839	-1.139	-0.949	 H	1	RES1	0.000	
28	H15C	5.521	-1.219	0.817	 H	1	RES1	0.000	
@<TRIPOS>BOND
1 3 16 1
2 4 5 ar
3 4 17 1
4 5 6 ar
5 5 18 1
6 6 15 1
7 6 7 ar
8 7 19 1
9 7 8 ar
10 8 20 1
11 4 9 ar
12 8 9 ar
13 3 10 1
14 9 10 1
15 10 11 1
16 10 21 1
17 11 12 1
18 11 22 1
19 11 23 1
20 12 13 1
21 13 14 1
22 13 24 1
23 13 25 1
24 14 26 1
25 14 27 1
26 14 28 1
27 1 15 1
28 2 15 1
@<TRIPOS>SUBSTRUCTURE
1	RES1	1	GROUP	1 ****	RES
