@<TRIPOS>MOLECULE
Molecule Name_00001_00001
    41    41     1     0     0
SMALL
NO_CHARGES
****
Generated from the CSD

@<TRIPOS>ATOM
     1 C5      -5.6439   0.8033  -0.0985   C.ar      1 1      0.0000
     2 C4      -4.9999   0.3546  -1.2314   C.ar      1 1      0.0000
     3 C3      -3.7310  -0.1924  -1.1396   C.ar      1 1      0.0000
     4 C8      -3.0902  -0.2985   0.0853   C.ar      1 1      0.0000
     5 C7      -3.7494   0.1580   1.2163   C.ar      1 1      0.0000
     6 C6      -5.0184   0.7052   1.1256   C.ar      1 1      0.0000
     7 H4      -5.4882   0.4301  -2.1974   H         1 1      0.0000
     8 C9      -1.7057  -0.8919   0.1845   C.3       1 1      0.0000
     9 H7      -3.2651   0.0857   2.1846   H         1 1      0.0000
    10 H6      -5.5212   1.0574   2.0202   H         1 1      0.0000
    11 C10     -0.5958   0.1352  -0.0307   C.3       1 1      0.0000
    12 H9A     -1.5836  -1.3470   1.1752   H         1 1      0.0000
    13 C11      0.8208  -0.4091   0.0584   C.3       1 1      0.0000
    14 C12      1.8634   0.6761  -0.1868   C.3       1 1      0.0000
    15 H12A     1.7889   1.4305   0.6061   H         1 1      0.0000
    16 C13      3.2630   0.1420  -0.2226   C.2       1 1      0.0000
    17 C14      4.3734   1.1253  -0.4412   C.3       1 1      0.0000
    18 H14B     4.0509   1.8601  -1.1891   H         1 1      0.0000
    19 H14A     5.2461   0.6000  -0.8482   H         1 1      0.0000
    20 N        3.4994  -1.1431  -0.0495   N.pl3     1 1      0.0000
    21 HN       2.6954  -1.7254   0.1844   H         1 1      0.0000
    22 C        4.8022  -1.7921  -0.0235   C.3       1 1      0.0000
    23 H1A      4.8066  -2.6199   0.6826   H         1 1      0.0000
    24 H1C      5.0572  -2.1837  -1.0060   H         1 1      0.0000
    25 H1B      5.5783  -1.0897   0.2727   H         1 1      0.0000
    26 H10A    -0.7306   0.5865  -1.0215   H         1 1      0.0000
    27 H10B    -0.7090   0.9292   0.7176   H         1 1      0.0000
    28 H9B     -1.6052  -1.6882  -0.5633   H         1 1      0.0000
    29 H5      -6.6382   1.2317  -0.1700   H         1 1      0.0000
    30 H3      -3.2321  -0.5423  -2.0373   H         1 1      0.0000
    31 H12B     1.6459   1.1721  -1.1408   H         1 1      0.0000
    32 C15      4.7850   1.8614   0.8204   C.3       1 1      0.0000
    33 H15A     5.1070   1.1319   1.5737   H         1 1      0.0000
    34 H15C     3.9169   2.3974   1.2236   H         1 1      0.0000
    35 C16      5.9048   2.8457   0.5733   C.3       1 1      0.0000
    36 H16C     5.6051   3.5958  -0.1555   H         1 1      0.0000
    37 H16A     6.1784   3.3575   1.4935   H         1 1      0.0000
    38 H16B     6.7881   2.3372   0.1927   H         1 1      0.0000
    39 OH       0.9826  -1.4277  -0.9089   O.3       1 1      0.0000
    40 OH1      0.8238  -1.0524  -1.8145   H         1 1      0.0000
    41 H25      0.9763  -0.8330   1.0494   H         1 1      0.0000
@<TRIPOS>BOND
     1     1     2   ar
     2     1     6   ar
     3     1    29    1
     4     2     3   ar
     5     2     7    1
     6     3     4   ar
     7     3    30    1
     8     4     5   ar
     9     4     8    1
    10     5     6   ar
    11     5     9    1
    12     6    10    1
    13     8    11    1
    14     8    12    1
    15     8    28    1
    16    11    13    1
    17    11    26    1
    18    11    27    1
    19    13    14    1
    20    14    15    1
    21    14    16    1
    22    14    31    1
    23    16    17    1
    24    16    20    2
    25    17    18    1
    26    17    19    1
    27    17    32    1
    28    20    21    1
    29    20    22    1
    30    22    23    1
    31    22    24    1
    32    22    25    1
    33    32    33    1
    34    32    34    1
    35    32    35    1
    36    35    36    1
    37    35    37    1
    38    35    38    1
    39    13    39    1
    40    39    40    1
    41    13    41    1
@<TRIPOS>SUBSTRUCTURE
     1 1           1 GROUP             0 ****  ****    0  
