# created with PyMOL 2.3.4
@<TRIPOS>MOLECULE
Molecule Name_00001_00001_00001
35 35 1                 
SMALL
USER_CHARGES
@<TRIPOS>ATOM
1	  OH	0.944	-1.473	-1.099	O.3	1	PP21	0.000	
2	  C3	-3.762	-0.182	-1.175	C.2	1	PP21	0.000	
3	  C4	-5.029	0.375	-1.235	C.2	1	PP21	0.000	
4	  C5	-5.638	0.833	-0.086	C.2	1	PP21	0.000	
5	  C6	-4.981	0.732	1.121	C.2	1	PP21	0.000	
6	  C7	-3.714	0.175	1.179	C.2	1	PP21	0.000	
7	  C8	-3.089	-0.289	0.032	C.2	1	PP21	0.000	
8	  C9	-1.710	-0.899	0.097	C.3	1	PP21	0.000	
9	 C10	-0.593	0.111	-0.157	C.3	1	PP21	0.000	
10	 C11	0.817	-0.454	-0.103	C.3	1	PP21	0.000	
11	 C12	1.871	0.620	-0.347	C.3	1	PP21	0.000	
12	 C13	3.271	0.109	-0.188	C.2	1	PP21	0.000	
13	 C14	4.395	1.082	-0.380	C.3	1	PP21	0.000	
14	 C15	4.667	1.938	0.842	C.3	1	PP21	0.000	
15	 C16	5.804	2.909	0.621	C.3	1	PP21	0.000	
16	 OH1	0.793	-1.079	-1.993	 H	1	PP21	0.000	
17	  H3	-3.291	-0.540	-2.085	 H	1	PP21	0.000	
18	  H4	-5.542	0.452	-2.187	 H	1	PP21	0.000	
19	  H5	-6.630	1.270	-0.132	 H	1	PP21	0.000	
20	  H6	-5.456	1.091	2.028	 H	1	PP21	0.000	
21	  H7	-3.205	0.100	2.135	 H	1	PP21	0.000	
22	 H25	0.984	-0.900	0.889	 H	1	PP21	0.000	
23	 H9A	-1.566	-1.349	1.087	 H	1	PP21	0.000	
24	 H9B	-1.641	-1.702	-0.648	 H	1	PP21	0.000	
25	H10A	-0.749	0.558	-1.147	 H	1	PP21	0.000	
26	H10B	-0.674	0.911	0.589	 H	1	PP21	0.000	
27	H12A	1.710	1.446	0.355	 H	1	PP21	0.000	
28	H12B	1.750	1.016	-1.363	 H	1	PP21	0.000	
29	H14A	5.306	0.526	-0.635	 H	1	PP21	0.000	
30	H14B	4.155	1.737	-1.227	 H	1	PP21	0.000	
31	H15A	4.910	1.287	1.691	 H	1	PP21	0.000	
32	H15C	3.760	2.498	1.099	 H	1	PP21	0.000	
33	H16A	5.978	3.509	1.511	 H	1	PP21	0.000	
34	H16B	6.724	2.378	0.384	 H	1	PP21	0.000	
35	H16C	5.580	3.582	-0.204	 H	1	PP21	0.000	
@<TRIPOS>BOND
1 1 16 1
2 2 7 ar
3 2 17 1
4 2 3 ar
5 3 18 1
6 3 4 ar
7 4 5 ar
8 4 19 1
9 5 20 1
10 5 6 ar
11 6 21 1
12 6 7 ar
13 7 8 1
14 8 9 1
15 8 23 1
16 8 24 1
17 9 10 1
18 9 25 1
19 9 26 1
20 1 10 1
21 10 11 1
22 10 22 1
23 11 12 1
24 11 27 1
25 11 28 1
26 12 13 1
27 13 14 1
28 13 29 1
29 13 30 1
30 14 15 1
31 14 31 1
32 14 32 1
33 15 33 1
34 15 34 1
35 15 35 1
@<TRIPOS>SUBSTRUCTURE
1	PP21	1	GROUP	1 ****	PP2
