# created with PyMOL 2.3.4
@<TRIPOS>MOLECULE
PEN_0001
15 14 1                 
SMALL
USER_CHARGES
@<TRIPOS>ATOM
1	 C14	10.789	-15.019	-20.667	C.3	1	PEN1	0.000	
2	 C13	10.331	-16.088	-19.673	C.3	1	PEN1	0.000	
3	 C12	9.356	-15.680	-18.540	C.3	1	PEN1	0.000	
4	 C11	8.420	-16.799	-18.086	C.3	1	PEN1	0.000	
5	 C10	9.200	-17.814	-17.292	C.3	1	PEN1	0.000	
6	 H01	11.801	-15.245	-21.002	 H	1	PEN1	0.000	
7	 H02	10.117	-15.008	-21.525	 H	1	PEN1	0.000	
8	 H03	10.777	-14.043	-20.182	 H	1	PEN1	0.000	
9	 H05	8.725	-14.887	-18.941	 H	1	PEN1	0.000	
10	 H06	9.945	-15.356	-17.682	 H	1	PEN1	0.000	
11	 H07	7.980	-17.281	-18.959	 H	1	PEN1	0.000	
12	 H08	7.628	-16.381	-17.465	 H	1	PEN1	0.000	
13	 H09	10.119	-17.358	-16.923	 H	1	PEN1	0.000	
14	 H10	8.600	-18.155	-16.448	 H	1	PEN1	0.000	
15	 H11	9.447	-18.663	-17.929	 H	1	PEN1	0.000	
@<TRIPOS>BOND
1 1 2 1
2 1 6 1
3 1 7 1
4 1 8 1
5 2 3 1
6 3 4 1
7 3 9 1
8 3 10 1
9 4 5 1
10 4 11 1
11 4 12 1
12 5 13 1
13 5 14 1
14 5 15 1
@<TRIPOS>SUBSTRUCTURE
1	PEN1	1	GROUP	1 X	PEN
