# created with PyMOL 2.3.4
@<TRIPOS>MOLECULE
Molecule Name_00001_00001
35 35 1                 
SMALL
USER_CHARGES
@<TRIPOS>ATOM
1	  OH	1.023	-0.969	1.359	O.3	1	PP11	0.000	
2	  C3	-3.731	-0.190	-1.140	C.2	1	PP11	0.000	
3	  C4	-5.000	0.357	-1.232	C.2	1	PP11	0.000	
4	  C5	-5.644	0.806	-0.099	C.2	1	PP11	0.000	
5	  C6	-5.018	0.707	1.125	C.2	1	PP11	0.000	
6	  C7	-3.750	0.160	1.216	C.2	1	PP11	0.000	
7	  C8	-3.090	-0.297	0.085	C.2	1	PP11	0.000	
8	  C9	-1.706	-0.891	0.184	C.3	1	PP11	0.000	
9	 C10	-0.596	0.136	-0.031	C.3	1	PP11	0.000	
10	 C11	0.821	-0.409	0.058	C.3	1	PP11	0.000	
11	 C12	1.864	0.676	-0.187	C.3	1	PP11	0.000	
12	 C13	3.263	0.141	-0.222	C.2	1	PP11	0.000	
13	 C14	4.374	1.124	-0.441	C.3	1	PP11	0.000	
14	 C15	4.786	1.860	0.821	C.3	1	PP11	0.000	
15	 C16	5.906	2.843	0.575	C.3	1	PP11	0.000	
16	 OH1	0.367	-1.693	1.513	 H	1	PP11	0.000	
17	  H3	-3.232	-0.540	-2.038	 H	1	PP11	0.000	
18	  H4	-5.488	0.434	-2.198	 H	1	PP11	0.000	
19	  H5	-6.638	1.235	-0.170	 H	1	PP11	0.000	
20	  H6	-5.521	1.059	2.020	 H	1	PP11	0.000	
21	  H7	-3.265	0.087	2.184	 H	1	PP11	0.000	
22	 H22	0.947	-1.201	-0.696	 H	1	PP11	0.000	
23	 H9A	-1.584	-1.346	1.174	 H	1	PP11	0.000	
24	 H9B	-1.606	-1.687	-0.564	 H	1	PP11	0.000	
25	H10A	-0.730	0.587	-1.021	 H	1	PP11	0.000	
26	H10B	-0.709	0.930	0.718	 H	1	PP11	0.000	
27	H12A	1.789	1.430	0.607	 H	1	PP11	0.000	
28	H12B	1.646	1.172	-1.140	 H	1	PP11	0.000	
29	H14A	5.246	0.598	-0.848	 H	1	PP11	0.000	
30	H14B	4.052	1.859	-1.188	 H	1	PP11	0.000	
31	H15A	5.107	1.130	1.574	 H	1	PP11	0.000	
32	H15C	3.918	2.396	1.225	 H	1	PP11	0.000	
33	H16A	6.180	3.355	1.495	 H	1	PP11	0.000	
34	H16B	6.789	2.335	0.194	 H	1	PP11	0.000	
35	H16C	5.607	3.594	-0.154	 H	1	PP11	0.000	
@<TRIPOS>BOND
1 1 16 1
2 2 7 ar
3 2 17 1
4 2 3 ar
5 3 18 1
6 3 4 ar
7 4 5 ar
8 4 19 1
9 5 20 1
10 5 6 ar
11 6 21 1
12 6 7 ar
13 7 8 1
14 8 9 1
15 8 23 1
16 8 24 1
17 9 10 1
18 9 25 1
19 9 26 1
20 1 10 1
21 10 11 1
22 10 22 1
23 11 12 1
24 11 27 1
25 11 28 1
26 12 13 1
27 13 14 1
28 13 29 1
29 13 30 1
30 14 15 1
31 14 31 1
32 14 32 1
33 15 33 1
34 15 34 1
35 15 35 1
@<TRIPOS>SUBSTRUCTURE
1	PP11	1	GROUP	1 ****	PP1
