@<TRIPOS>MOLECULE
Molecule Name_00001_00001_00001_00001
    41    41     1     0     0
SMALL
NO_CHARGES
****
Generated from the CSD

@<TRIPOS>ATOM
     1 C5      -5.6496   0.8225  -0.2365   C.ar      1 1      0.0000
     2 C4      -5.0152   0.3158  -1.3501   C.ar      1 1      0.0000
     3 C3      -3.7499  -0.2360  -1.2390   C.ar      1 1      0.0000
     4 C8      -3.1026  -0.2876  -0.0140   C.ar      1 1      0.0000
     5 C7      -3.7532   0.2246   1.0980   C.ar      1 1      0.0000
     6 C6      -5.0185   0.7767   0.9879   C.ar      1 1      0.0000
     7 H4      -5.5082   0.3494  -2.3161   H         1 1      0.0000
     8 C9      -1.7248  -0.8925   0.1072   C.3       1 1      0.0000
     9 H7      -3.2650   0.1925   2.0664   H         1 1      0.0000
    10 H6      -5.5141   1.1740   1.8675   H         1 1      0.0000
    11 C10     -0.6040   0.1083  -0.1668   C.3       1 1      0.0000
    12 H9A     -1.6018  -1.2980   1.1190   H         1 1      0.0000
    13 C11      0.8049  -0.4514  -0.0576   C.3       1 1      0.0000
    14 C12      1.8637   0.6123  -0.3259   C.3       1 1      0.0000
    15 H12A     1.6867   1.4691   0.3359   H         1 1      0.0000
    16 C13      3.2603   0.1120  -0.1140   C.2       1 1      0.0000
    17 C14      4.3868   1.0774  -0.3251   C.3       1 1      0.0000
    18 H14B     4.1652   1.6942  -1.2048   H         1 1      0.0000
    19 H14A     5.3033   0.5125  -0.5356   H         1 1      0.0000
    20 N        3.4894  -1.1270   0.2702   N.pl3     1 1      0.0000
    21 HN       2.6722  -1.7052   0.4646   H         1 1      0.0000
    22 C        4.7894  -1.7052   0.5767   C.3       1 1      0.0000
    23 H1A      4.7049  -2.4458   1.3692   H         1 1      0.0000
    24 H1C      5.2107  -2.1932  -0.2997   H         1 1      0.0000
    25 H1B      5.4860  -0.9363   0.9041   H         1 1      0.0000
    26 H10A    -0.7391   0.5109  -1.1783   H         1 1      0.0000
    27 H10B    -0.7019   0.9403   0.5415   H         1 1      0.0000
    28 H9B     -1.6389  -1.7270  -0.5997   H         1 1      0.0000
    29 H5      -6.6408   1.2553  -0.3232   H         1 1      0.0000
    30 H3      -3.2590  -0.6330  -2.1214   H         1 1      0.0000
    31 H12B     1.7637   0.9636  -1.3603   H         1 1      0.0000
    32 C15      4.6319   1.9870   0.8643   C.3       1 1      0.0000
    33 H15A     4.8571   1.3744   1.7460   H         1 1      0.0000
    34 H15C     3.7186   2.5565   1.0766   H         1 1      0.0000
    35 C16      5.7722   2.9493   0.6243   C.3       1 1      0.0000
    36 H16C     5.5657   3.5856  -0.2337   H         1 1      0.0000
    37 H16A     5.9263   3.5886   1.4911   H         1 1      0.0000
    38 H16B     6.6976   2.4104   0.4318   H         1 1      0.0000
    39 OH       0.9545  -1.5127  -1.0044   O.3       1 1      0.0000
    40 OH1      0.8228  -1.1587  -1.9185   H         1 1      0.0000
    41 H25      0.9515  -0.8531   0.9570   H         1 1      0.0000
@<TRIPOS>BOND
     1     1     2   ar
     2     1     6   ar
     3     1    29    1
     4     2     3   ar
     5     2     7    1
     6     3     4   ar
     7     3    30    1
     8     4     5   ar
     9     4     8    1
    10     5     6   ar
    11     5     9    1
    12     6    10    1
    13     8    11    1
    14     8    12    1
    15     8    28    1
    16    11    13    1
    17    11    26    1
    18    11    27    1
    19    13    14    1
    20    14    15    1
    21    14    16    1
    22    14    31    1
    23    16    17    1
    24    16    20    2
    25    17    18    1
    26    17    19    1
    27    17    32    1
    28    20    21    1
    29    20    22    1
    30    22    23    1
    31    22    24    1
    32    22    25    1
    33    32    33    1
    34    32    34    1
    35    32    35    1
    36    35    36    1
    37    35    37    1
    38    35    38    1
    39    13    39    1
    40    39    40    1
    41    13    41    1
@<TRIPOS>SUBSTRUCTURE
     1 1           1 GROUP             0 ****  ****    0  
