# created with PyMOL 2.3.4
@<TRIPOS>MOLECULE
Molecule Name_00001_00001_00001_00001_00001
35 35 1                 
SMALL
USER_CHARGES
@<TRIPOS>ATOM
1	  OH	0.963	-1.547	-0.911	O.3	1	PP21	0.000	
2	  C3	-3.737	-0.291	-1.299	C.2	1	PP21	0.000	
3	  C4	-5.000	0.253	-1.461	C.2	1	PP21	0.000	
4	  C5	-5.658	0.805	-0.383	C.2	1	PP21	0.000	
5	  C6	-5.053	0.813	0.855	C.2	1	PP21	0.000	
6	  C7	-3.790	0.269	1.015	C.2	1	PP21	0.000	
7	  C8	-3.115	-0.289	-0.060	C.2	1	PP21	0.000	
8	  C9	-1.740	-0.886	0.116	C.3	1	PP21	0.000	
9	 C10	-0.615	0.105	-0.176	C.3	1	PP21	0.000	
10	 C11	0.792	-0.447	-0.014	C.3	1	PP21	0.000	
11	 C12	1.855	0.607	-0.304	C.3	1	PP21	0.000	
12	 C13	3.248	0.119	-0.042	C.2	1	PP21	0.000	
13	 C14	4.377	1.077	-0.270	C.3	1	PP21	0.000	
14	 C15	4.596	2.036	0.885	C.3	1	PP21	0.000	
15	 C16	5.740	2.990	0.628	C.3	1	PP21	0.000	
16	 OH1	0.851	-1.233	-1.842	 H	1	PP21	0.000	
17	  H3	-3.227	-0.724	-2.154	 H	1	PP21	0.000	
18	  H4	-5.472	0.244	-2.437	 H	1	PP21	0.000	
19	  H5	-6.648	1.232	-0.509	 H	1	PP21	0.000	
20	  H6	-5.568	1.246	1.706	 H	1	PP21	0.000	
21	  H7	-3.323	0.279	1.994	 H	1	PP21	0.000	
22	 H25	0.918	-0.805	1.020	 H	1	PP21	0.000	
23	 H9A	-1.638	-1.247	1.147	 H	1	PP21	0.000	
24	 H9B	-1.638	-1.749	-0.553	 H	1	PP21	0.000	
25	H10A	-0.729	0.464	-1.207	 H	1	PP21	0.000	
26	H10B	-0.729	0.966	0.494	 H	1	PP21	0.000	
27	H12A	1.663	1.490	0.317	 H	1	PP21	0.000	
28	H12B	1.777	0.914	-1.355	 H	1	PP21	0.000	
29	H14A	5.299	0.505	-0.437	 H	1	PP21	0.000	
30	H14B	4.174	1.655	-1.179	 H	1	PP21	0.000	
31	H15A	4.803	1.462	1.796	 H	1	PP21	0.000	
32	H15C	3.678	2.612	1.053	 H	1	PP21	0.000	
33	H16A	5.875	3.666	1.470	 H	1	PP21	0.000	
34	H16B	6.670	2.445	0.479	 H	1	PP21	0.000	
35	H16C	5.551	3.589	-0.260	 H	1	PP21	0.000	
@<TRIPOS>BOND
1 1 16 1
2 2 7 ar
3 2 17 1
4 2 3 ar
5 3 18 1
6 3 4 ar
7 4 5 ar
8 4 19 1
9 5 20 1
10 5 6 ar
11 6 21 1
12 6 7 ar
13 7 8 1
14 8 9 1
15 8 23 1
16 8 24 1
17 9 10 1
18 9 25 1
19 9 26 1
20 1 10 1
21 10 11 1
22 10 22 1
23 11 12 1
24 11 27 1
25 11 28 1
26 12 13 1
27 13 14 1
28 13 29 1
29 13 30 1
30 14 15 1
31 14 31 1
32 14 32 1
33 15 33 1
34 15 34 1
35 15 35 1
@<TRIPOS>SUBSTRUCTURE
1	PP21	1	GROUP	1 ****	PP2
